38

Pt      0.000000000000000      0.000000000000000     10.336787564766800
Pt      2.821356056934320      0.000000000000000     10.336787564766800
Pt      5.642712113868650      0.000000000000000     10.336787564766800
Pt      1.410678028467160      2.443366018426220     10.336787564766800
Pt      4.232034085401490      2.443366018426220     10.336787564766800
Pt      7.053390142335810      2.443366018426220     10.336787564766800
Pt      2.821356056934320      4.886732036852440     10.336787564766800
Pt      5.642712113868650      4.886732036852440     10.336787564766800
Pt      8.464068170802969      4.886732036852440     10.336787564766800
Pt      1.410678028467160      0.814455339475407     12.640415138833401
Pt      4.232034085401490      0.814455339475407     12.640415138833401
Pt      7.053390142335810      0.814455339475407     12.640415138833401
Pt      2.821356056934320      3.257821357901630     12.640415138833401
Pt      5.642712113868650      3.257821357901630     12.640415138833401
Pt      8.464068170802969      3.257821357901630     12.640415138833401
Pt      4.232034085401490      5.701187376327850     12.640415138833401
Pt      7.053390142335810      5.701187376327850     12.640415138833401
Pt      9.874746199270140      5.701187376327850     12.640415138833401
Pt      0.009263155928840      1.633869322855020     14.966017148151201
Pt      2.821773595260670      1.629045541227310     14.972192159186299
Pt      5.636070766987090      1.633603998555670     14.965250356892600
Pt      1.411391011682810      4.063293037146330     14.966025411478901
Pt      4.232884110970470      4.063889214591520     14.965252457040300
Pt      7.054752347750550      4.072827005291250     14.950734753376301
Pt      2.822358261431880      6.516041382062430     14.929171781419100
Pt      5.651756335900990      6.520957641767250     14.965994679012301
Pt      8.456828299105130      6.520468073720170     14.965999557658400
Pt     -0.017859131571895     -0.010675509421708     17.289948958417700
Pt      2.823297279933130     -0.017140219139758     17.412691041965498
Pt      5.665478560142880     -0.010769580599759     17.289556944970901
Pt      1.397181895851480      2.453096059041160     17.412580768574099
Pt      4.251208506919210      2.454131710769840     17.409571808550702
Pt      7.056212170094460      2.443906324474710     17.303571181211002
Pt      2.823729056348560      4.911256328304650     17.289624240506900
Pt      5.644826579974120      4.888384691028870     17.303567936908699
Pt      8.466401452264320      4.887694433880770     17.303372167839900
C       2.827350298416780      1.631797354141140     18.752483566180000
O       2.831602681045400      1.634528445590760     19.934590056014301
