36

Ru      2.207219683718570      1.351640493834440      5.000000000000000
Ru      2.207219683718570      4.054921481503330      5.000000000000000
Ru      2.207219683718570      6.758202469172210      5.000000000000000
Ru      4.414439367437130      0.000000000000001      5.780370002962910
Ru      4.414439367437130      2.703280987668880      5.780370002962920
Ru      4.414439367437140      5.406561975337770      5.780370002962920
Ru     -0.000000000000003      1.351640493834440      6.560740005925830
Ru     -0.000000000000003      4.054921481503330      6.560740005925830
Ru     -0.000000000000002      6.758202469172210      6.560740005925830
Ru      2.207219683718570      0.000000000000000      7.341110008888740
Ru      2.207219683718570      2.703280987668880      7.341110008888740
Ru      2.207219683718570      5.406561975337770      7.341110008888740
Ru      4.414439367437130      1.351640493834440      8.121480011851659
Ru      4.414439367437140      4.054921481503330      8.121480011851659
Ru      4.414439367437140      6.758202469172210      8.121480011851659
Ru     -0.000000000000004      0.000000000000000      8.901850014814570
Ru     -0.000000000000004      2.703280987668880      8.901850014814570
Ru     -0.000000000000004      5.406561975337770      8.901850014814570
Ru      2.207219683718570      1.351640493834440      9.682220017777480
Ru      2.207219683718570      4.054921481503320      9.682220017777480
Ru      2.207219683718570      6.758202469172210      9.682220017777480
Ru      4.414439367437130     -0.000000000000001     10.462590020740400
Ru      4.414439367437130      2.703280987668880     10.462590020740400
Ru      4.414439367437140      5.406561975337770     10.462590020740400
Ru      0.006371588837607      1.351640528590920     11.267741100293000
Ru      0.006371388661512      4.054921443219460     11.267741230029900
Ru      0.006371893164847      6.758202629626730     11.267740912907300
Ru      2.214018724555360      0.000001126321205     11.992841723397200
Ru      2.214018924773720      2.703280088529100     11.992842103707201
Ru      2.214018455236400      5.406561880321290     11.992842134460799
Ru      4.464435357921310      1.351640508530260     12.717081082857099
Ru      4.464435762056040      4.054921162583850     12.717081251535101
Ru      4.464436844252240      6.758202718716810     12.717081704870200
Ru     -0.036428535162476     -0.000000163963337     13.463355436367500
Ru     -0.036428579818427      2.703280760657350     13.463355043257399
Ru     -0.036430291495614      5.406562377101450     13.463354887009300
