18

N       1.410134700000000      0.814141700000000     15.232798100000000
O       1.410134700000000      0.814141700000000     16.428904200000002
Pd      5.640538100000000      0.000000300000000     13.989064000000001
Pd      7.050673100000000      2.442425300000000     13.989064000000001
Pd      2.820269100000000      0.000000300000000     13.989064000000001
Pd      4.230404100000000      2.442425300000000     13.860284500000001
Pd      2.820269400000000      1.628283400000000     11.586527200000001
Pd      4.230404400000000      4.070708400000000     11.586527200000001
Pd      5.640538400000000      1.628283400000000     11.586527200000001
Pd      7.050673400000000      4.070708400000000     11.669961400000000
Pd      1.410134700000000      0.814141700000000      9.302740399999999
Pd      2.820269700000000      3.256566700000000      9.302740399999999
Pd      4.230403700000000      0.814141700000000      9.302740399999999
Pd      5.640538700000000      3.256566700000000      9.302740399999999
Pd      0.000000000000000      0.000000000000000      7.000000100000000
Pd      1.410135000000000      2.442425000000000      7.000000100000000
Pd      2.820269000000000      0.000000000000000      7.000000100000000
Pd      4.230404000000000      2.442425000000000      7.000000100000000
