51

Rh      2.230223453763350      1.365284930170050     -8.670954249204820
Rh      2.231249769466740      4.096035430038950     -8.671836074699860
Rh      0.001579212815507      1.366190629200380     -7.095416514357410
Rh      0.000542560043586      4.095806165720860     -7.095412769725050
Rh      4.459695441492240     -0.001913280244658     -7.884999406689710
Rh      4.458891191691430      2.729833557822110     -7.882960241524600
Rh      2.228818715534810      2.729434085241110     -6.305153942316830
Rh      4.459227702920180      1.365490722675910     -5.519716890386250
Rh      4.458909096496140      4.096380506003380     -5.519443135777460
Rh      2.230102437628680     -0.000600638689920     -6.306911284835550
Rh     -0.000601706612230      0.001852278184508     -4.729978190539050
Rh      2.228669028681380      1.366245739383330     -3.942858088078570
Rh      2.229935603205340      4.094309913289790     -3.942965430477500
Rh      0.000196861235869      2.731584855522440     -4.729793325033130
Rh     -0.000115648282389      1.365122090775630     -2.366460868647530
Rh     -0.000719844208396      4.095808944642710     -2.363925224430940
Rh      4.459797097510240      2.729083348787080     -3.152985711573480
Rh      4.459068396940250     -0.000676922000306     -3.152698119254040
Rh      2.246120072168540      0.004703135709999     -1.513368345245090
Rh      4.460787198601260      1.375483540622470     -0.798648799088391
Rh      4.457101794961880      4.100703975418480     -0.796552048487613
Rh      2.237171663927840      2.734406764174300     -1.515105365296900
Rh     -0.008461614924761      2.744568909607270     -0.064484386808049
Rh     -0.003779587808735      0.024219189361019     -0.071271348806896
Rh      2.230223453763350      6.826977708054950     -8.670954249204820
Rh      2.231249769466740      9.557728207923841     -8.671836074699870
Rh      0.001579212815508      6.827883407085270     -7.095416514357410
Rh      0.000542560043586      9.557498943605751     -7.095412769725050
Rh      4.459695441492240      5.459779497640240     -7.884999406689710
Rh      4.458891191691430      8.191526335707000     -7.882960241524600
Rh      2.228818715534810      8.191126863126010     -6.305153942316840
Rh      4.459227702920180      6.827183500560810     -5.519716890386250
Rh      4.458909096496140      9.558073283888270     -5.519443135777460
Rh      2.230102437628680      5.461092139194970     -6.306911284835550
Rh     -0.000601706612229      5.463545056069400     -4.729978190539060
Rh      2.228669028681380      6.827938517268220     -3.942858088078570
Rh      2.229935603205340      9.556002691174680     -3.942965430477500
Rh      0.000196861235870      8.193277633407330     -4.729793325033130
Rh     -0.000115648282388      6.826814868660530     -2.366460868647530
Rh     -0.000719844208395      9.557501722527601     -2.363925224430940
Rh      4.459797097510240      8.190776126671979     -3.152985711573480
Rh      4.459068396940260      5.461015855884590     -3.152698119254040
Rh      2.239914511287230      5.464753693479580     -1.514561052835750
Rh      4.461709717437140      6.836285461038150     -0.799873537506713
Rh      4.469293212757150      9.566956040712620     -0.805660371001143
Rh      2.245892505042110      8.198267516965689     -1.530867942345750
Rh      0.030824804696949      8.234388427921530     -0.031564082774763
Rh     -0.003456980911597      5.472547313007220      0.025873070443047
O       0.329356413172261      7.442655403287210      1.977699995862010
C       0.240586132572647      6.217253451883040      1.788653269006300
H       0.310757273573909      5.553393594829010      2.668535507288510
