41

Pt      2.216083322680250      6.918289161361440     10.755488111166100
Pt      2.216085002277090      4.067321444949910     10.755487360590800
Ir      2.131571018140950      1.373204083235660     10.599674788555300
Ir     -0.031733668596612      0.007826977993763      9.846215218739861
Ir     -0.031730788033193      2.738579604988750      9.846214157393391
Ir     -0.079559310393082      5.492801673756000      9.827322472063649
Ir      4.484234752748860      1.373204865288910      9.152009504427159
Ir      4.508634250288250      4.109587884782030      9.139147408550780
Ir      4.508633068710830      6.876020969606910      9.139146427709679
Ir      2.259024345617930     -0.024696164095634      8.364093561929121
Ir      2.259023350218970      2.771099180973950      8.364094704895640
Ir      2.247795086841340      5.492803329764700      8.280793943600059
Ir     -0.021975665992195      1.373205565534870      7.516477727683770
Ir     -0.016355170736559      4.117516725043240      7.529076246929980
Ir     -0.016355704445987      6.868091572043820      7.529079692631040
Ir      4.455735437341620      0.006810216269077      6.743978487368070
Ir      4.455738801590050      2.739599966124680      6.743972699341710
Ir      4.461317168853030      5.492799339002790      6.747931262159150
Ir      2.226343154354450      1.373207995489450      5.940378474757460
Ir      2.229901974010950      4.111446777111080      5.960596716956780
Ir      2.229905459216590      6.874158103453760      5.960604031267880
Ir      0.000000000000000      0.000000000000000      5.185321352964180
Ir      0.000000000000000      2.746402710664520      5.185321352964180
Ir      0.000000000000000      5.492805503721130      5.185321352964180
Ir      4.485523057535620      1.373201396528300      4.392385414917990
Ir      4.485523057535620      4.119604107192830      4.392385414917990
Ir      4.485523057535620      6.866006817857350      4.392385414917990
Ir      2.242761495126390      0.000000000000000      3.599449476871810
Ir      2.242761495126390      2.746402710664520      3.599449476871810
Ir      2.242761495126390      5.492805503721130      3.599449476871810
Ir      0.000000000000000      1.373201396528300      2.806513515429200
Ir      0.000000000000000      4.119604107192830      2.806513515429200
Ir      0.000000000000000      6.866006817857350      2.806513515429200
Ir      4.485523057535620      0.000000000000000      2.013577577383020
Ir      4.485523057535620      2.746402710664520      2.013577577383020
Ir      4.485523057535620      5.492805503721130      2.013577577383020
Ir      2.242761495126390      1.373201396528300      1.220641639336830
Ir      2.242761495126390      4.119604107192830      1.220641639336830
Ir      2.242761495126390      6.866006817857350      1.220641639336830
N       2.498339302455560      5.492805462525090     12.137388908236700
O       2.777363795348970      5.492804582516060     13.299363067636200
