45

Cu      0.000000000000000      0.000000000000000     10.000000000000000
Cu      3.676260000000000      0.000000000000000     10.000000000000000
Cu      7.352520000000000      0.000000000000000     10.000000000000000
Cu      0.000000000000000      2.599510000000000     10.000000000000000
Cu      3.676260000000000      2.599510000000000     10.000000000000000
Cu      7.352520000000000      2.599510000000000     10.000000000000000
Cu      0.000000000000000      5.199020000000000     10.000000000000000
Cu      3.676260000000000      5.199020000000000     10.000000000000000
Cu      7.352520000000000      5.199020000000000     10.000000000000000
Cu      1.838130000000000      1.299750000000000     11.299750000000000
Cu      5.514390000000000      1.299750000000000     11.299750000000000
Cu      9.190659999999999      1.299750000000000     11.299750000000000
Cu      1.838130000000000      3.899270000000000     11.299750000000000
Cu      5.514390000000000      3.899270000000000     11.299750000000000
Cu      9.190659999999999      3.899270000000000     11.299750000000000
Cu      1.838130000000000      6.498780000000000     11.299750000000000
Cu      5.514390000000000      6.498780000000000     11.299750000000000
Cu      9.190659999999999      6.498780000000000     11.299750000000000
Cu      0.000000000000000      0.000000000000000     12.599510000000000
Cu      3.676260000000000      0.000000000000000     12.599510000000000
Cu      7.352520000000000      0.000000000000000     12.599510000000000
Cu      0.000000000000000      2.599510000000000     12.599510000000000
Cu      3.676260000000000      2.599510000000000     12.599510000000000
Cu      7.352520000000000      2.599510000000000     12.599510000000000
Cu      0.000000000000000      5.199020000000000     12.599510000000000
Cu      3.676260000000000      5.199020000000000     12.599510000000000
Cu      7.352520000000000      5.199020000000000     12.599510000000000
Cu      1.838130000000000      1.299750000000000     13.950950000000001
Cu      5.514390000000000      1.299750000000000     13.950950000000001
Cu      9.190659999999999      1.299750000000000     13.950950000000001
Cu      1.838130000000000      3.899270000000000     13.950950000000001
Cu      5.514390000000000      3.899270000000000     13.950950000000001
Cu      9.190659999999999      3.899270000000000     13.950950000000001
Cu      1.838130000000000      6.498780000000000     13.950950000000001
Cu      5.514390000000000      6.498780000000000     13.950950000000001
Cu      9.190659999999999      6.498780000000000     13.950950000000001
Cu      0.000000000000000      0.000000000000000     15.123820000000000
Cu      3.676260000000000      0.000000000000000     15.123820000000000
Cu      7.352520000000000      0.000000000000000     15.123820000000000
Cu      0.000000000000000      2.599510000000000     15.123820000000000
Cu      3.676260000000000      2.599510000000000     15.123820000000000
Cu      7.352520000000000      2.599510000000000     15.123820000000000
Cu      0.000000000000000      5.199020000000000     15.123820000000000
Cu      3.676260000000000      5.199020000000000     15.123820000000000
Cu      7.352520000000000      5.199020000000000     15.123820000000000
