36

Os      2.228207294382840      6.822463640481780      5.000000000000000
Os      2.228207294382840      1.364492728096350      5.000000000000000
Os      2.228207294382840      4.093478184289070      5.000000000000000
Os      4.456414588765690      5.457970912385420      5.787790243873720
Os      4.456414588765690      2.728985456192710      5.787790243873720
Os      4.456414588765690     -0.000000000000008      5.787790243873720
Os     -0.000000000000002      6.822463640481780      6.575580487747440
Os     -0.000000000000002      4.093478184289070      6.575580487747440
Os     -0.000000000000002      1.364492728096350      6.575580487747440
Os      2.228207294382840      5.457970912385430      7.363370731621160
Os      2.228207294382840      2.728985456192710      7.363370731621160
Os      2.228207294382840     -0.000000000000006      7.363370731621160
Os      4.456414588765690      6.822463640481790      8.151160975494880
Os      4.456414588765690      1.364492728096350      8.151160975494880
Os      4.456414588765690      4.093478184289070      8.151160975494880
Os      0.000000000000000      2.728985456192710      8.938951219368599
Os     -0.000000000000000      5.457970912385430      8.938951219368599
Os     -0.000000000000000     -0.000000000000004      8.938951219368599
Os      2.228207294382840      6.822463640481790      9.726741463242311
Os      2.228207294382840      4.093478184289070      9.726741463242320
Os      2.228207294382840      1.364492728096350      9.726741463242320
Os      4.456414588765690      5.457970912385430     10.514531707115999
Os      4.456414588765690      2.728985456192710     10.514531707115999
Os      4.456414588765690     -0.000000000000002     10.514531707115999
Os      0.026355685960114      4.093479151098260     11.347490638062400
Os      0.026355701223115      6.822463354782500     11.347490343672900
Os      0.026356238612408      1.364493080738530     11.347491407357101
Os      2.240749182308280      5.457970679419160     12.071297516849700
Os      2.240749218911060      2.728985502539920     12.071297861399801
Os      2.240748947961020     -0.000000506583826     12.071297871447900
Os      4.495168570500180      4.093479037363150     12.791462678505299
Os      4.495168835974900      6.822463572969100     12.791462618795901
Os      4.495169661947420      1.364493260681720     12.791463383615699
Os     -0.082950748273152      2.728986557118400     13.546616038746899
Os     -0.082952784538100      5.457970636483000     13.546616297621100
Os     -0.082950136743375     -0.000001762956512     13.546615936193000
