35

Cu      2.456700000000000      2.174820000000000     11.303110000000000
Cu      4.913380000000000      1.702040000000000     12.010680000000001
Cu      0.491360000000000      1.229240000000000     12.718550000000000
Cu      2.948030000000000      0.756470000000000     13.426110000000000
Cu      5.404710000000000      0.283670000000000     14.133680000000000
Cu      1.474020000000000      2.363950000000000     14.841250000000000
Cu      3.913470000000000      1.911080000000000     15.589449999999999
Cu      6.374340000000000      1.429940000000000     16.248120000000000
Cu      1.991690000000000      0.942900000000000     17.019220000000001
Cu      4.428150000000000      0.451720000000000     17.625620000000001
Cu      6.873550000000000      0.002730000000000     18.269680000000001
Cu      2.948040000000000      4.727870000000000     11.303110000000000
Cu      5.404720000000000      4.255100000000000     12.010680000000001
Cu      0.982690000000000      3.782300000000000     12.718550000000000
Cu      3.439370000000000      3.309520000000000     13.426110000000000
Cu      5.896040000000000      2.836720000000000     14.133680000000000
Cu      1.965360000000000      4.917000000000000     14.841250000000000
Cu      4.397910000000000      4.432910000000000     15.585730000000000
Cu      6.857030000000000      3.970610000000000     16.250560000000000
Cu      2.449350000000000      3.503160000000000     17.005659999999999
Cu      4.870340000000000      3.037470000000000     17.760069999999999
Cu      0.494220000000000      2.551130000000000     18.283140000000000
Cu      3.439370000000000      7.280930000000000     11.303110000000000
Cu      5.896050000000000      6.808150000000000     12.010680000000001
Cu      1.474030000000000      6.335350000000000     12.718550000000000
Cu      3.930700000000000      5.862580000000000     13.426110000000000
Cu      6.387380000000000      5.389780000000000     14.133680000000000
Cu      2.456690000000000      7.470060000000000     14.841250000000000
Cu      4.884810000000000      7.006740000000000     15.549410000000000
Cu      7.370070000000000      6.525010000000000     16.243700000000000
Cu      2.972330000000000      6.049890000000000     17.011310000000002
Cu      5.408070000000000      5.606960000000000     17.617580000000000
Cu      7.838580000000000      5.121250000000000     18.274300000000000
C       4.854680000000000      3.035270000000000     19.629639999999998
O       4.809320000000000      3.040630000000000     20.792829999999999
