50

Pd      2.302969587681240      1.409832657384800     -8.953870314496269
Pd      2.303995903384630      4.229678611683200     -8.954752139991321
Pd      0.001579212815507      1.410738356415130     -7.326893295050420
Pd      0.000542560043586      4.229449347365110     -7.326889550418060
Pd      4.605187709328020     -0.001913280244658     -8.142195829681940
Pd      4.604383459527210      2.818929012251620     -8.140156664516830
Pd      2.301564849452710      2.818529539670620     -6.510911080710620
Pd      4.604719970755970      1.410038449890660     -5.699754386480810
Pd      4.604401364331930      4.230023687647640     -5.699480631872020
Pd      2.302848571546570     -0.000600638689919     -6.512668423229340
Pd     -0.000601706612230      0.001852278184509     -4.884296044334390
Pd      2.301415162599270      1.410793466598080     -4.071456299574690
Pd      2.302681737123230      4.227953094934050     -4.071563641973610
Pd      0.000196861235869      2.820680309951950     -4.884111178828470
Pd     -0.000115648282388      1.409669817990390     -2.443619795545200
Pd     -0.000719844208395      4.229452126286970     -2.441084151328610
Pd      4.605289365346020      2.818178803216590     -3.255864280770380
Pd      4.604560664776040     -0.000676922000306     -3.255576688450930
Pd      2.306169647341030     -0.005171959067240     -1.567279963289810
Pd      4.596151677855260      1.399476925544330     -0.812065040307553
Pd      4.576589196556530      4.229533589832170     -0.810847910823408
Pd      2.312313506893200      2.812955330011570     -1.581825824032170
Pd     -0.011287828930328      2.822580855558320      0.012705568519865
Pd     -0.007114737090343      0.005993984272937     -0.048650278246507
Pd      2.302969587681240      7.049716344128710     -8.953870314496269
Pd      2.303995903384630      9.869562298427111     -8.954752139991321
Pd      0.001579212815507      7.050622043159030     -7.326893295050420
Pd      0.000542560043586      9.869333034109021     -7.326889550418060
Pd      4.605187709328020      5.637970406499240     -8.142195829681940
Pd      4.604383459527210      8.458812698995519     -8.140156664516830
Pd      2.301564849452710      8.458413226414519     -6.510911080710620
Pd      4.604719970755970      7.049922136634570     -5.699754386480810
Pd      4.604401364331930      9.869907374391540     -5.699480631872020
Pd      2.302848571546570      5.639283048053980     -6.512668423229340
Pd     -0.000601706612230      5.641735964928410     -4.884296044334400
Pd      2.301415162599270      7.050677153341980     -4.071456299574690
Pd      2.302681737123230      9.867836781677950     -4.071563641973610
Pd      0.000196861235869      8.460563996695850     -4.884111178828470
Pd     -0.000115648282388      7.049553504734290     -2.443619795545200
Pd     -0.000719844208395      9.869335813030871     -2.441084151328610
Pd      4.605289365346020      8.458062489960490     -3.255864280770380
Pd      4.604560664776040      5.639206764743600     -3.255576688450930
Pd      2.312471639827190      5.646053011508110     -1.582701717557620
Pd      4.595969126092680      7.059717747680540     -0.812250804664997
Pd      4.596938403873600      9.869530670491930     -0.806015315309721
Pd      2.306161434113110      8.464187144057140     -1.566505785682080
Pd     -0.007338952766311      8.453655631726379     -0.048685644307335
Pd     -0.011175981726142      5.637574334755650      0.010231986942617
O       0.006353637684921      4.237814641388960      2.624398558226610
C       0.029180077614031      4.231971227735100      1.461052037631530
