15

Au      1.487736397692980      0.858945107599674      9.999999135712169
Au      4.463209187127990      0.858945107599674      9.999999135712169
Au      2.975472792410490      3.435780425245020      9.999999135712169
Au      5.950945581845500      3.435780425245020      9.999999135712169
Au      5.950945575894550      1.717890210045680     12.429462620405500
Au      2.975472786459540      1.717890210045680     12.429462620405500
Au      7.438681970612060      4.294725527691030     12.429462620405500
Au      4.463209181177050      4.294725527691030     12.429462620405500
Au     -0.000002469642415      0.000924805580820     14.884508027321200
Au      2.975469323009210      0.005478109662794     14.875305899529200
Au      1.488672972385550      2.576172297918120     14.916346941026900
Au      4.462278030771370      2.576168004910480     14.916340900308001
O      -0.000019132290036     -0.000420951817491     18.146372971727999
H       5.950952181444140      0.770554100547494     18.739211330493699
H       2.975479514003520      4.378989779365040     18.734903154454901
