18

N       1.415315333333330      0.817132666666667     15.344941506857500
O       1.415315333333330      0.817132666666667     16.545201038963100
Pt     -0.032499540831695     -0.018763639431622     14.063092260926901
Pt      1.415315002830630      2.488925236188910     14.063092260926901
Pt      2.863130546492960     -0.018763626174067     14.063092260926901
Pt      4.245946002830630      2.451397990194410     13.901053514188501
Pt      2.824709010946300      1.630846486620570     11.615999387896300
Pt      4.245945651098190      4.092501070919800     11.615999387896300
Pt      5.667183291250080      1.630846489036190     11.615999387896300
Pt      7.076576651098190      4.085663348858850     11.713309877012200
Pt      1.415315331918020      0.817132665849534      9.311200307296870
Pt      2.830630331918020      3.268530665849530      9.311200307296870
Pt      4.245946331918020      0.817132665849534      9.311200307296870
Pt      5.661261331918020      3.268530665849530      9.311200307296870
Pt      0.000000000000000      0.000000000000000      6.999999942824230
Pt      1.415315000000000      2.451398000000000      6.999999942824230
Pt      2.830631000000000      0.000000000000000      6.999999942824230
Pt      4.245946000000000      2.451398000000000      6.999999942824230
