15

La      1.867081704939910      1.077960092538690      9.999999118254379
La      5.601244940684750      1.077960092538690      9.999999118254379
La      3.734163572812310      4.311840363687010      9.999999118254379
La      7.468326808557150      4.311840363687010      9.999999118254379
La      7.468326634422170      2.155920178609620     13.048930576567599
La      3.734163398677330      2.155920178609620     13.048930576567599
La      9.335408502294580      5.389800449757940     13.048930576567599
La      5.601245266549740      5.389800449757940     13.048930576567599
La      0.011796111190923      0.020103119188609     16.103741230552099
La      3.722367374117740      0.020114101446009     16.103738986136101
La      1.867086282341940      3.291090995783690     15.950557303021300
La      5.601238676462400      3.177040621338530     15.960500796903499
O       1.867077670082070     -0.058390618787827     18.352922367700401
H       1.867078502344410      0.756866988558281     18.904603097277001
H       5.601241134262020      5.649827798044860     18.978695681928698
