18

C       0.000020000000000      0.000010000000000      8.564450000000001
Ir      0.000000000000000      0.000000000000000      0.000000000000000
Ir      2.678500000000000      0.000000000000000      0.000000000000000
Ir      1.339250000000000      2.319650000000000      0.000000000000000
Ir      4.017750000000000      2.319650000000000      0.000000000000000
Ir      1.339250000000000      0.773220000000000      2.186990000000000
Ir      4.017750000000000      0.773220000000000      2.186990000000000
Ir      2.678500000000000      3.092860000000000      2.186990000000000
Ir      5.357000000000000      3.092860000000000      2.186990000000000
Ir      5.357000000000000      1.540300000000000      4.341790000000000
Ir      2.678500000000000      1.546430000000000      4.325890000000000
Ir      6.701560000000000      3.869150000000000      4.341790000000000
Ir      4.012430000000000      3.869150000000000      4.341790000000000
Ir      0.000000000000000      0.000000000000000      6.731190000000000
Ir      2.678500000000000      0.008170000000000      6.477670000000000
Ir      1.346320000000000      2.315560000000000      6.477680000000000
Ir      4.010670000000000      2.315560000000000      6.477680000000000
O       0.000050000000000      0.000030000000000      9.707420000000001
