15

Al      1.420721402301390      0.820253943593679      9.999999218354249
Al      4.262164201221290      0.820253943593679      9.999999218354249
Al      2.841442801761340      3.281015769453190      9.999999218354249
Al      5.682885600681240      3.281015769453190      9.999999218354249
Al      5.682885594998360      1.640507882265830     12.320027628149800
Al      2.841442796078460      1.640507882265830     12.320027628149800
Al      7.103606994458310      4.101269708125350     12.320027628149800
Al      4.262164195538410      4.101269708125350     12.320027628149800
Al     -0.000000019890100     -0.003881925603148     14.642120776015700
Al      2.841442904053280     -0.008397049517803     14.615487167808700
Al      1.418399380929000      2.456282378069810     14.638463009093000
Al      4.264486356141490      2.456282944045030     14.638463674374499
O       0.000091221679617     -0.027674721641394     17.814411022482201
H       5.682840938883330      0.737218459165098     18.416651228709700
H       2.841395852601980      4.116959510762460     18.401192846523600
