32

Co      0.000619993371358     -0.000226285962070      6.016715225311470
Co      2.165004099831550      1.249924960956720      6.016496289700480
Co      0.000386257398883      2.499147995640310      6.016327158875650
Co      2.165011802765950      3.748440872072080      6.016452366750820
Co      2.882583379349170     -0.000160505430564      7.990159675157500
Co      0.718100255850829      1.249788193434780      7.990487665895750
Co      2.883010214635310      2.499227292191230      7.990438617539170
Co      0.718097367499791      3.748638604408890      7.990476563909340
Co      0.000000000000000      0.000000000000000     10.047168284483901
Co      2.164524225508680      1.249688644264900     10.047168284483901
Co      0.000000000000000      2.499377288529810     10.047168284483901
Co      2.164524225508680      3.749065932794710     10.047168284483901
Co      2.886032300678240      0.000000000000000     12.070752426725800
Co      0.721508075169561      1.249688644264900     12.070752426725800
Co      2.886032300678240      2.499377288529810     12.070752426725800
Co      0.721508075169561      3.749065932794710     12.070752426725800
Co      0.000000000000000      0.000000000000000     14.094336568967700
Co      2.164524225508680      1.249688644264900     14.094336568967700
Co      0.000000000000000      2.499377288529810     14.094336568967700
Co      2.164524225508680      3.749065932794710     14.094336568967700
Co      2.903779624157920      0.001021451747020     16.153751878234800
Co      0.711695227970511      1.232973261028280     16.150405818895099
Co      2.879858813431890      2.499753895034760     16.119130216736000
Co      0.711273420299323      3.767085496944870     16.150375254309100
Co      0.003144499420534      0.001248655110988     18.263952703980198
Co      2.164019449980100      1.269623680689990     18.081659011707000
Co     -0.003972763552473      2.501408707876670     18.078123106528800
Co      2.164102403420010      3.730801187437990     18.077779526772101
N       0.004879277953375      0.002416093436869     20.452768603443602
H      -0.000963718636223      0.955469730857707     20.820520302736000
H      -0.815911872336696     -0.485928717398708     20.813923875353499
H       0.830073430702030     -0.476837831945403     20.816324035644602
