66

Cu      0.000000000000000      0.000000000000000     10.000000000000000
Cu      2.599510000000000      0.000000000000000     10.000000000000000
Cu      5.199020000000000      0.000000000000000     10.000000000000000
Cu      7.798530000000000      0.000000000000000     10.000000000000000
Cu      1.299750000000000      2.251240000000000     10.000000000000000
Cu      3.899260000000000      2.251240000000000     10.000000000000000
Cu      6.498770000000000      2.251240000000000     10.000000000000000
Cu      9.098280000000001      2.251240000000000     10.000000000000000
Cu      2.599510000000000      4.502480000000000     10.000000000000000
Cu      5.199020000000000      4.502480000000000     10.000000000000000
Cu      7.798530000000000      4.502480000000000     10.000000000000000
Cu     10.398040000000000      4.502480000000000     10.000000000000000
Cu      3.899260000000000      6.753720000000000     10.000000000000000
Cu      6.498770000000000      6.753720000000000     10.000000000000000
Cu      9.098280000000001      6.753720000000000     10.000000000000000
Cu     11.697789999999999      6.753720000000000     10.000000000000000
Cu      1.299750000000000      0.750410000000000     12.122490000000001
Cu      3.899260000000000      0.750410000000000     12.122490000000001
Cu      6.498770000000000      0.750410000000000     12.122490000000001
Cu      9.098280000000001      0.750410000000000     12.122490000000001
Cu      2.599510000000000      3.001660000000000     12.122490000000001
Cu      5.199020000000000      3.001660000000000     12.122490000000001
Cu      7.798530000000000      3.001660000000000     12.122490000000001
Cu     10.398040000000000      3.001660000000000     12.122490000000001
Cu      3.899260000000000      5.252900000000000     12.122490000000001
Cu      6.498770000000000      5.252900000000000     12.122490000000001
Cu      9.098280000000001      5.252900000000000     12.122490000000001
Cu     11.697789999999999      5.252900000000000     12.122490000000001
Cu      5.199020000000000      7.504140000000000     12.122490000000001
Cu      7.798530000000000      7.504140000000000     12.122490000000001
Cu     10.398040000000000      7.504140000000000     12.122490000000001
Cu     12.997550000000000      7.504140000000000     12.122490000000001
Cu     10.394940000000000      1.504220000000000     14.209250000000001
Cu      2.600960000000000      1.498880000000000     14.203360000000000
Cu      5.218610000000000      1.516640000000000     14.235730000000000
Cu      7.792560000000000      1.513670000000000     14.228920000000000
Cu     11.699439999999999      3.751230000000000     14.208180000000000
Cu      3.902960000000000      3.750590000000000     14.213290000000001
Cu      6.499250000000000      3.753700000000000     14.199859999999999
Cu      9.087240000000000      3.753490000000000     14.225910000000001
Cu     12.997280000000000      6.004880000000000     14.216400000000000
Cu      5.203490000000000      6.003630000000000     14.213179999999999
Cu      7.796840000000000      5.984460000000000     14.232160000000000
Cu     10.398330000000000      6.006350000000000     14.208399999999999
Cu     14.299370000000000      8.256370000000000     14.208710000000000
Cu      6.502450000000000      8.258310000000000     14.202930000000000
Cu      9.100350000000001      8.256890000000000     14.207850000000001
Cu     11.697010000000001      8.255780000000000     14.209050000000000
Cu      5.205570000000000      9.004750000000000     16.300770000000000
Cu      2.601580000000000      0.003110000000000     16.299350000000000
Cu      5.199640000000000      0.004360000000000     16.304330000000000
Cu     12.997960000000001      8.998400000000000     16.298220000000001
Cu      1.307130000000000      2.250340000000000     16.300529999999998
Cu      3.886840000000000      2.251230000000000     16.296939999999999
Cu      6.493590000000000      2.256380000000000     16.392260000000000
Cu      9.132920000000000      2.235930000000000     16.307900000000000
Cu     12.986910000000000      4.507950000000000     16.303629999999998
Cu      5.157610000000000      4.530400000000000     16.299949999999999
Cu      7.799950000000000      4.518660000000000     16.377469999999999
Cu     10.409630000000000      4.511660000000000     16.296130000000002
Cu     14.289400000000001      6.765730000000000     16.303429999999999
Cu      6.495350000000000      6.772240000000000     16.294650000000001
Cu      9.100560000000000      6.761220000000000     16.302260000000000
Cu     11.696080000000000      6.759070000000000     16.301200000000001
O       7.182930000000000      3.398300000000000     19.081740000000000
C       7.177240000000000      3.386970000000000     17.895849999999999
