16

Pd      1.412289750000000      1.412289750000000     10.000000983135600
Pd      0.000000000000000      0.000000000000000     11.997278794650599
Pd      1.412279183722920      1.412302111711960     13.989026671012301
Pd     -0.000000838284825     -0.000034841333611     15.969555661560401
Pd      1.412289750000000      4.236869250000000     10.000000983135600
Pd      0.000000000000000      2.824579500000000     11.997278794650599
Pd      1.412281889142600      4.236867383239290     13.989038650547000
Pd      0.000002322581964      2.824597721397040     15.969609703951500
Pd      4.236869250000000      1.412289750000000     10.000000983135600
Pd      2.824579500000000      0.000000000000000     11.997278794650599
Pd      4.236881030913910      1.412299003739450     13.989018792166901
Pd      2.824582517246330     -0.000025555411302     15.969550622600400
Pd      4.236869250000000      4.236869250000000     10.000000983135600
Pd      2.824579500000000      2.824579500000000     11.997278794650599
Pd      4.236874853298920      4.236864206479790     13.989057878012501
Pd      2.824572429220470      2.824610795990730     15.969584467559001
