18

Pt      1.420169000000000      1.420169000000000     10.000000258371999
Pt      0.000000000000000      0.000000000000000     12.008422086124000
Pt      1.404427230000450      1.404424741967210     14.001435343619301
Pt      0.000000031367433      0.000000584570371     16.199003855332698
Pt      1.420169000000000      4.260507000000000     10.000000258371999
Pt      0.000000000000000      2.840338000000000     12.008422086124000
Pt      1.404427587929990      4.276251556783940     14.001435228724000
Pt      0.000000075506093      2.840338547911800     15.934503230754000
Pt      4.260507000000000      1.420169000000000     10.000000258371999
Pt      2.840338000000000      0.000000000000000     12.008422086124000
Pt      4.276248516632650      1.404424770882150     14.001435346018701
Pt      2.840338108951820      0.000000344108518     15.934501930992500
Pt      4.260507000000000      4.260507000000000     10.000000258371999
Pt      2.840338000000000      2.840338000000000     12.008422086124000
Pt      4.276248551087350      4.276251760629770     14.001435239127900
Pt      2.840337962056090      2.840338235535600     15.956993053384799
O       0.000000210916180     -0.000001908137379     19.205235322972399
C       0.000000373551725     -0.000000617719936     18.057200984151802
