16

Sn      1.729326250000000      1.729326250000000     10.000000232077999
Sn      6.917305000000000      0.000000000000001     12.445636744026000
Sn      1.729159045725880      1.729235919968590     15.007143928984100
Sn     -0.000032233425062      0.000026106683408     17.256997223584701
Sn      1.729326250000000      5.187978750000000     10.000000232077999
Sn      6.917305000000000      3.458652500000000     12.445636744026000
Sn      1.729154761982990      5.188073966940070     15.007125921963100
Sn     -0.000028740938259      3.458628324372210     17.257015045090601
Sn      5.187978750000000      1.729326250000000     10.000000232077999
Sn      3.458652500000000      0.000000000000001     12.445636744026000
Sn      5.188159917119680      1.729238476140590     15.007232166039200
Sn      3.458676025895720     -0.000003688646727     17.257062321855798
Sn      5.187978750000000      5.187978750000000     10.000000232077999
Sn      3.458652500000000      3.458652500000000     12.445636744026000
Sn      5.188150301958540      5.188062332613720     15.007219464920700
Sn      3.458687984413550      3.458654690205290     17.257139135384701
