15

Ga      1.522134561994190      0.878804772900653      9.999999321417620
Ga      4.566403846560690      0.878804772900653      9.999999321417620
Ga      3.044268954277460      3.515219086329780      9.999999321417620
Ga      6.088538238843950      3.515219086329780      9.999999321417620
Ga      6.088538399422070      1.757609540528480     12.485634616430300
Ga      3.044269114855570      1.757609540528480     12.485634616430300
Ga      7.610672791705340      4.394023853957610     12.485634616430300
Ga      4.566403507138840      4.394023853957610     12.485634616430300
Ga     -0.000003965880312     -0.136878871626429     14.931237920367900
Ga      3.044271156439450     -0.124696275271162     14.924375940439100
Ga      1.515038798271480      2.497308267537490     14.931796178062900
Ga      4.573494039790670      2.497302915616430     14.931801996368600
O       3.044318167098870      2.207776867993040     18.165398572333299
H       3.044263279528610      2.715058562944380     18.994572488848899
H       3.044261549891400      1.275577702929030     18.446211382330201
