28

Pt      1.375744434513650      1.376021266656960     13.605215948184100
Pt      4.122348053160350      1.376048226761200     13.605122848079599
Ir      1.375286515801820      4.122421514578950     13.493103657778001
Ir      4.121643855690800      4.122288642458640     13.493031041193300
Ir      0.001784560865028     -0.008547959383095     11.650909255509999
Ir      0.001824462272276      2.759395309869080     11.651156009075100
Ir      2.748168718346930     -0.008456792871699     11.651182796940400
Ir      2.748125594814870      2.759339237586070     11.650908658400400
Ir      1.374308729299080      1.374646235968390      9.725196311051331
Ir      1.374393392391980      4.121017904005280      9.720055018625150
Ir      4.120678441022320      1.374716972507680      9.725140074000549
Ir      4.120639707851410      4.120969455781720      9.719933047845201
Ir      0.000000000000000      0.000000000000000      7.767999922320000
Ir      0.000000000000000      2.746402738128550      7.767999922320000
Ir      2.746402738128550      0.000000000000000      7.767999922320000
Ir      2.746402738128550      2.746402738128550      7.767999922320000
Ir      1.373201369064280      1.373201369064280      5.826000000000000
Ir      1.373201369064280      4.119604107192830      5.826000000000000
Ir      4.119604107192830      1.373201369064280      5.826000000000000
Ir      4.119604107192830      4.119604107192830      5.826000000000000
Ir      0.000000000000000      0.000000000000000      3.884000077680000
Ir      0.000000000000000      2.746402738128550      3.884000077680000
Ir      2.746402738128550      0.000000000000000      3.884000077680000
Ir      2.746402738128550      2.746402738128550      3.884000077680000
Ir      1.373201369064280      1.373201369064280      1.941999922320000
Ir      1.373201369064280      4.119604107192830      1.941999922320000
Ir      4.119604107192830      1.373201369064280      1.941999922320000
Ir      4.119604107192830      4.119604107192830      1.941999922320000
