36

Ag      4.851230000000000      1.489070000000000     20.799540000000000
Ag      4.853880000000000      4.468980000000000     20.816970000000001
Ag      4.851220000000000      7.448880000000000     20.799550000000000
Ag      2.450980000000000      8.938110000000000     20.006560000000000
Ag      2.459870000000000      2.983800000000000     20.008730000000000
Ag      2.459870000000000      5.954230000000000     20.008720000000000
Ag      0.050480000000000      1.490240000000000     19.219519999999999
Ag      0.051930000000000      4.469050000000000     19.227390000000000
Ag      0.050470000000000      7.447850000000000     19.219539999999999
Ag      4.930400000000000      8.938140000000001     18.310580000000002
Ag      4.934190000000000      2.981390000000000     18.323210000000000
Ag      4.934190000000000      5.956670000000000     18.323239999999998
Ag      2.452000000000000      1.490840000000000     17.459119999999999
Ag      2.447420000000000      4.469060000000000     17.451309999999999
Ag      2.451980000000000      7.447280000000000     17.459099999999999
Ag      0.015050000000000      8.938190000000001     16.597940000000001
Ag      0.011070000000000      2.979610000000000     16.601510000000001
Ag      0.011080000000000      5.958560000000000     16.601510000000001
Ag      4.865350000000000      1.489700000000000     15.761830000000000
Ag      4.865350000000000      4.469110000000000     15.761830000000000
Ag      4.865350000000000      7.448510000000000     15.761830000000000
Ag      2.432680000000000      0.000000000000000     14.901750000000000
Ag      2.432680000000000      2.979410000000000     14.901750000000000
Ag      2.432680000000000      5.958820000000000     14.901750000000000
Ag      0.000000000000000      1.489700000000000     14.041660000000000
Ag      0.000000000000000      4.469110000000000     14.041660000000000
Ag      0.000000000000000      7.448510000000000     14.041660000000000
Ag      4.865350000000000      0.000000000000000     13.181590000000000
Ag      4.865350000000000      2.979410000000000     13.181590000000000
Ag      4.865350000000000      5.958820000000000     13.181590000000000
Ag      2.432680000000000      1.489700000000000     12.321500000000000
Ag      2.432680000000000      4.469110000000000     12.321500000000000
Ag      2.432680000000000      7.448510000000000     12.321500000000000
Ag      0.000000000000000      0.000000000000000     11.461420000000000
Ag      0.000000000000000      2.979410000000000     11.461420000000000
Ag      0.000000000000000      5.958820000000000     11.461420000000000
