38

Au      4.735550000000000      1.420500000000000     20.652069999999998
Au      4.815160000000000      4.454040000000000     20.832370000000001
Au      4.735560000000000      7.487650000000000     20.652059999999999
Au      2.347000000000000      0.000010000000000     19.961549999999999
Au      2.410260000000000      2.964500000000000     19.909189999999999
Au      2.410270000000000      5.943630000000000     19.909179999999999
Au      0.035000000000000      1.485920000000000     19.217810000000000
Au      0.081060000000000      4.454070000000000     19.203859999999999
Au      0.035000000000000      7.422220000000000     19.217810000000000
Au      4.949720000000000      0.000010000000000     18.177859999999999
Au      4.965050000000000      3.020860000000000     18.306580000000000
Au      4.965060000000000      5.887280000000000     18.306570000000001
Au      2.454900000000000      1.484300000000000     17.387519999999999
Au      2.448610000000000      4.454060000000000     17.384589999999999
Au      2.454900000000000      7.423830000000000     17.387519999999999
Au      0.048350000000000      8.908120000000000     16.542369999999998
Au      0.019850000000000      2.958570000000000     16.535920000000001
Au      0.019850000000000      5.949540000000000     16.535920000000001
Au      4.848960000000000      1.484680000000000     15.708740000000001
Au      4.848960000000000      4.454050000000000     15.708740000000001
Au      4.848960000000000      7.423430000000000     15.708740000000001
Au      2.424480000000000      0.000000000000000     14.851559999999999
Au      2.424480000000000      2.969370000000000     14.851559999999999
Au      2.424480000000000      5.938750000000000     14.851559999999999
Au      0.000000000000000      1.484680000000000     13.994370000000000
Au      0.000000000000000      4.454050000000000     13.994370000000000
Au      0.000000000000000      7.423430000000000     13.994370000000000
Au      4.848960000000000      0.000000000000000     13.137190000000000
Au      4.848960000000000      2.969370000000000     13.137190000000000
Au      4.848960000000000      5.938750000000000     13.137190000000000
Au      2.424480000000000      1.484680000000000     12.279999999999999
Au      2.424480000000000      4.454050000000000     12.279999999999999
Au      2.424480000000000      7.423430000000000     12.279999999999999
Au      0.000000000000000      0.000000000000000     11.422820000000000
Au      0.000000000000000      2.969370000000000     11.422820000000000
Au      0.000000000000000      5.938750000000000     11.422820000000000
O       4.874350000000000      4.454290000000000     23.975510000000000
C       4.928270000000000      4.454190000000000     22.822700000000001
