66

Pt      1.410590000000000      1.410590000000000     10.852800000000000
Pt      4.231790000000000      1.410590000000000     10.852800000000000
Pt      7.052990000000000      1.410590000000000     10.852800000000000
Pt      9.874190000000000      1.410590000000000     10.852800000000000
Pt      1.410590000000000      4.231790000000000     10.852800000000000
Pt      4.231790000000000      4.231790000000000     10.852800000000000
Pt      7.052990000000000      4.231790000000000     10.852800000000000
Pt      9.874190000000000      4.231790000000000     10.852800000000000
Pt      1.410590000000000      7.052990000000000     10.852800000000000
Pt      4.231790000000000      7.052990000000000     10.852800000000000
Pt      7.052990000000000      7.052990000000000     10.852800000000000
Pt      9.874190000000000      7.052990000000000     10.852800000000000
Pt      1.410590000000000      9.874190000000000     10.852800000000000
Pt      4.231790000000000      9.874190000000000     10.852800000000000
Pt      7.052990000000000      9.874190000000000     10.852800000000000
Pt      9.874190000000000      9.874190000000000     10.852800000000000
Pt      0.000000000000000      0.000000000000000     12.847690000000000
Pt      2.821200000000000      0.000000000000000     12.847690000000000
Pt      5.642390000000000      0.000000000000000     12.847690000000000
Pt      8.463590000000000      0.000000000000000     12.847690000000000
Pt      0.000000000000000      2.821200000000000     12.847690000000000
Pt      2.821200000000000      2.821200000000000     12.847690000000000
Pt      5.642390000000000      2.821200000000000     12.847690000000000
Pt      8.463590000000000      2.821200000000000     12.847690000000000
Pt      0.000000000000000      5.642390000000000     12.847690000000000
Pt      2.821200000000000      5.642390000000000     12.847690000000000
Pt      5.642390000000000      5.642390000000000     12.847690000000000
Pt      8.463590000000000      5.642390000000000     12.847690000000000
Pt      0.000000000000000      8.463590000000000     12.847690000000000
Pt      2.821200000000000      8.463590000000000     12.847690000000000
Pt      5.642390000000000      8.463590000000000     12.847690000000000
Pt      8.463590000000000      8.463590000000000     12.847690000000000
Pt      1.412800000000000      1.412800000000000     14.799020000000001
Pt      4.230580000000000      1.423270000000000     14.800290000000000
Pt      7.053940000000000      1.423270000000000     14.800549999999999
Pt      9.872370000000000      1.412830000000000     14.799370000000000
Pt      1.423270000000000      4.230580000000000     14.800290000000000
Pt      4.263350000000000      4.263350000000000     14.860560000000000
Pt      7.021220000000000      4.263370000000000     14.860849999999999
Pt      9.861660000000001      4.230720000000000     14.800660000000001
Pt      1.423270000000000      7.053940000000000     14.800549999999999
Pt      4.263370000000000      7.021220000000000     14.860849999999999
Pt      7.021240000000000      7.021240000000000     14.861120000000000
Pt      9.861630000000000      7.053860000000000     14.800910000000000
Pt      1.412830000000000      9.872370000000000     14.799370000000000
Pt      4.230720000000000      9.861660000000001     14.800660000000001
Pt      7.053860000000000      9.861630000000000     14.800910000000000
Pt      9.872290000000000      9.872290000000000     14.799709999999999
Pt      0.000280000000000      0.000280000000000     16.727570000000000
Pt      2.823160000000000      0.000230000000000     16.733940000000000
Pt      5.642170000000000      0.000210000000000     16.736270000000001
Pt      8.461660000000000      0.000220000000000     16.734639999999999
Pt      0.000230000000000      2.823160000000000     16.733940000000000
Pt      2.811810000000000      2.811810000000000     16.754140000000000
Pt      5.642150000000000      2.782080000000000     16.755780000000001
Pt      8.472989999999999      2.811900000000000     16.754770000000001
Pt      0.000210000000000      5.642170000000000     16.736270000000001
Pt      2.782080000000000      5.642150000000000     16.755780000000001
Pt      5.642260000000000      5.642260000000000     17.089030000000001
Pt      8.502770000000000      5.642170000000000     16.756170000000001
Pt      0.000220000000000      8.461660000000000     16.734639999999999
Pt      2.811900000000000      8.472989999999999     16.754770000000001
Pt      5.642170000000000      8.502770000000000     16.756170000000001
Pt      8.472890000000000      8.472890000000000     16.755350000000000
O       5.642660000000000      5.642660000000000     20.096710000000002
C       5.642620000000000      5.642620000000000     18.931509999999999
