28

Os     -0.000228696361941     -0.000001267461424      6.083341841426920
Os      2.384153675753490      1.376625857188200      6.083335758222400
Os     -0.000228680080850      2.753246554085560      6.083336105689120
Os      2.384153850225580      4.129870338132540      6.083335210632240
Os      1.586831036427830     -0.000000755361428      8.180543201765150
Os      3.971209584974960      1.376624005928690      8.180542203075380
Os      1.586830186300980      2.753247806665940      8.180541727628761
Os      3.971209877399450      4.129873046593800      8.180541289334389
Os      0.000000000000000      0.000000000000000     10.356676085309900
Os      2.384382576224400      1.376623922234210     10.356676085309900
Os      0.000000000000000      2.753247844468420     10.356676085309900
Os      2.384382576224400      4.129871766702630     10.356676085309900
Os      1.589588384149600     -0.000000000000000     12.535014127964800
Os      3.973970960374000      1.376623922234210     12.535014127964800
Os      1.589588384149600      2.753247844468420     12.535014127964800
Os      3.973970960374000      4.129871766702630     12.535014127964800
Os      0.000000000000000      0.000000000000000     14.713352170619700
Os      2.384382576224400      1.376623922234210     14.713352170619700
Os      0.000000000000000      2.753247844468420     14.713352170619700
Os      2.384382576224400      4.129871766702630     14.713352170619700
Os      1.586830741725760     -0.000001040636318     16.889485261572101
Os      3.971209638463690      1.376624033026610     16.889486356559601
Os      1.586829156458370      2.753248864527710     16.889486540955399
Os      3.971208996141230      4.129873076809470     16.889486766323600
Os     -0.000229008007773     -0.000001086071311     18.986688863723099
Os      2.384153358242920      1.376626402949240     18.986694656957699
Os     -0.000229709927146      2.753247162279740     18.986694292986702
Os      2.384153023502860      4.129870974709140     18.986695222556602
