6

N       1.415315333333330      0.817132666666667     15.353627989960200
O       1.415315333333330      0.817132666666667     16.550974116393800
Pt     -0.000000134576457      0.000000068735082     14.033610088624201
Pt      2.830630619011190      1.634265241287590     11.651649282362900
Pt      1.415315331918020      0.817132665849534      9.311200307296870
Pt      0.000000000000000      0.000000000000000      6.999999942824230
