32

Pd      2.820520057386460     -0.000036595519224      5.985690674046690
Pd      0.000064089100091     -0.000037033628472      5.985691193430860
Pd      1.410292480288970      2.442696950043390      5.986635854527240
Pd      4.230875464768500      2.442770729783670      5.985690698552710
Pd      1.410292063357350      0.814199607051557      8.307000586014279
Pd      2.820612273813600      3.256945825393490      8.307000518065760
Pd      5.641139433566860      3.256945793838660      8.307000553069610
Pd      4.230875697167480      0.814232400146135      8.306389905087780
Pd      2.820583748779650      1.628464786629820     10.605993974197800
Pd      5.641167497559300      1.628464786629820     10.605993974197800
Pd      4.230875623169480      4.071161966574540     10.605993974197800
Pd      7.051459371949130      4.071161966574540     10.605993974197800
Pd     -0.000000000000005      0.000000000000001     12.908990961296700
Pd      2.820583748779650      0.000000000000001     12.908990961296700
Pd      1.410291874389820      2.442697179944730     12.908990961296700
Pd      4.230875623169480      2.442697179944730     12.908990961296700
Pd      1.410291874389820      0.814232393314910     15.211987948395601
Pd      4.230875623169480      0.814232393314910     15.211987948395601
Pd      2.820583748779650      3.256929573259640     15.211987948395601
Pd      5.641167497559300      3.256929573259640     15.211987948395601
Pd      2.810552285437700      1.634256504068390     17.517925872390400
Pd      5.651196536152400      1.634256522903540     17.517923346323499
Pd      4.230874792869930      4.071162482086620     17.497117718249200
Pd      7.051458132281460      4.059580738216650     17.517923320510100
Pd      1.410291510973290      2.442697360917070     19.898819800783698
Pd      0.001248444723922     -0.000720774029812     19.809310277869098
Pd      2.819333538856500     -0.000721795166253     19.809316536087898
Pd      4.230875615783130      2.444140786689650     19.809316568822901
N       1.410291666212290      2.442697222436780     22.139962667547600
H       1.410292049826500      3.401243304449790     22.482587859280802
H       0.580166665379592      1.963423978240450     22.482587794898301
H       2.240417376418200      1.963423940822300     22.482587218116301
