36

Cu      0.000000000000000      0.000000000000000      9.533678756476689
Cu      2.602152954766490      0.000000000000000      9.533678756476689
Cu      5.204305909532990      0.000000000000000      9.533678756476689
Cu      1.301076477383250      2.253530563360520      9.533678756476689
Cu      3.903229432149740      2.253530563360520      9.533678756476689
Cu      6.505382386916240      2.253530563360520      9.533678756476689
Cu      2.602152954766490      4.507061126721050      9.533678756476689
Cu      5.204305909532990      4.507061126721050      9.533678756476689
Cu      7.806458864299480      4.507061126721050      9.533678756476689
Cu      1.301076477383250      0.751176854453508     11.658327747094500
Cu      3.903229432149740      0.751176854453508     11.658327747094500
Cu      6.505382386916240      0.751176854453508     11.658327747094500
Cu      2.602152954766490      3.004707417814030     11.658327747094500
Cu      5.204305909532990      3.004707417814030     11.658327747094500
Cu      7.806458864299480      3.004707417814030     11.658327747094500
Cu      3.903229432149740      5.258237981174560     11.658327747094500
Cu      6.505382386916240      5.258237981174560     11.658327747094500
Cu      9.107535341682730      5.258237981174560     11.658327747094500
Cu      0.000583370306461      1.499322040154180     13.758160776992700
Cu      2.599409627456790      1.500613781702800     13.760575874949801
Cu      5.205370136908860      1.501730639305230     13.763144636466601
Cu      1.300847346769080      3.752346727796210     13.762099873980400
Cu      3.903284828627070      3.755037461141260     13.755567350929400
Cu      6.504321385061890      3.753672180489110     13.760895981409300
Cu      2.604090875772070      6.009337163836760     13.758461462434100
Cu      5.203084070884190      6.009714081565170     13.754867125090200
Cu      7.804782470987770      6.008139754025920     13.763796436968899
Cu     -0.002925263393825      0.000552601156864     15.859317378156200
Cu      2.603804313754840     -0.000131600777636     15.863091262637500
Cu      5.202231307193410     -0.000259874957697     15.865753721981999
Cu      1.297807642317520      2.248882364279740     15.863272023184900
Cu      3.903003536661050      2.243823601947030     15.866791622269499
Cu      6.504942403282210      2.248152059147500     15.863238976438200
Cu      2.591622276162820      4.502526075325350     15.863605841625800
Cu      5.210920337991520      4.500907732482570     15.860440412107700
Cu      7.805719416926950      4.500726313004760     15.864449750655799
