16

Zn      1.414495750000000      1.414495750000000     10.000000563446900
Zn      0.000000000000000      0.000000000000000     12.000400054522199
Zn      1.414499279219750      1.414503402186720     13.995099568571501
Zn     -0.000000133716044      0.000001783970242     16.010500061567100
Zn      1.414495750000000      4.243487250000000     10.000000563446900
Zn      0.000000000000000      2.828991500000000     12.000400054522199
Zn      1.414500644338040      4.243491251482340     13.995101143607799
Zn      0.000003357739235      2.828987226267540     16.010507691508099
Zn      4.243487250000000      1.414495750000000     10.000000563446900
Zn      2.828991500000000      0.000000000000000     12.000400054522199
Zn      4.243489084031490      1.414500288277520     13.995098232942000
Zn      2.828989410664250      0.000000197086061     16.010489328169800
Zn      4.243487250000000      4.243487250000000     10.000000563446900
Zn      2.828991500000000      2.828991500000000     12.000400054522199
Zn      4.243487084696890      4.243471174165600     13.995102854041200
Zn      2.828987099287280      2.828991578751440     16.010494422986898
