17

O       1.298314666666670      0.749582333333333     14.494172871518201
Cu     -0.045589631403492     -0.026329904690406     13.387280578981400
Cu      1.298322884663030      2.301394288395650     13.387280578981400
Cu      2.642234400729550     -0.026329924967260     13.387280578981400
Cu      3.894951884663030      2.248742819579330     13.197278454353199
Cu      2.588350251585080      1.494386566594730     11.198081208877600
Cu      3.894937118599140      3.757460856647070     11.198081208877600
Cu      5.201522985613200      1.494386562916300     11.198081208877600
Cu      6.491566118599140      3.747909328719370     11.290058845719701
Cu      1.298314665368350      0.749582332583751      9.120139011405350
Cu      2.596629665368350      2.998329332583750      9.120139011405350
Cu      3.894943665368350      0.749582332583751      9.120139011405350
Cu      5.193258665368350      2.998329332583750      9.120139011405350
Cu      0.000000000000000      0.000000000000000      7.000000054576450
Cu      1.298315000000000      2.248747000000000      7.000000054576450
Cu      2.596629000000000      0.000000000000000      7.000000054576450
Cu      3.894944000000000      2.248747000000000      7.000000054576450
