15

Pb      1.729250547751470      0.998383264677611      9.999999328256211
Pb      5.187751803004050      0.998383264677611      9.999999328256211
Pb      3.458500925377780      3.993533052720140      9.999999328256211
Pb      6.917002180630360      3.993533052720140      9.999999328256211
Pb      6.917002340380010      1.996766523364920     12.823853592495601
Pb      3.458501085127430      1.996766523364920     12.823853592495601
Pb      8.646252718006320      4.991916311407450     12.823853592495601
Pb      5.187751462753740      4.991916311407450     12.823853592495601
Pb      0.000007195406644     -0.062089868436792     15.912352876949001
Pb      3.458502044968310     -0.096976229020693     15.817767133632501
Pb      1.726507072480810      2.926642661427370     15.845044650018300
Pb      5.190513279516760      2.926650293069030     15.845034006219800
O       3.458560788622610      2.252708045081830     19.021590974375400
H       3.458469137986910      2.919889185704690     19.730716146123800
H       3.458466315001920      1.396956209430640     19.488318203599100
