16

Si      1.351573500000000      1.351573500000000      9.999999227739300
Si      0.000000000000000      0.000000000000000     11.911412551438399
Si      1.351574416260830      1.351577393593900     13.724053782902400
Si      0.000003493767576      0.000007291658994     15.550292598679301
Si      1.351573500000000      4.054720500000000      9.999999227739300
Si      0.000000000000000      2.703147000000000     11.911412551438399
Si      1.351573156790370      4.054716514322710     13.724064904286401
Si     -0.000000881173329      2.703141703870440     15.550312117379500
Si      4.054720500000000      1.351573500000000      9.999999227739300
Si      2.703147000000000      0.000000000000000     11.911412551438399
Si      4.054722478275010      1.351574278149700     13.724055506346801
Si      2.703141432476590      0.000006378373563     15.550279521150401
Si      4.054720500000000      4.054720500000000      9.999999227739300
Si      2.703147000000000      2.703147000000000     11.911412551438399
Si      4.054722568449390      4.054720030168350     13.724069787539101
Si      2.703145863975010      2.703139308176780     15.550303934265900
