40

Ag      2.422822932981300      1.483669980729400      5.000000000000000
Ag      2.422822932981300      4.451009942188180      5.000000000000010
Ag      2.422822932981300      7.418349903646960      5.000000000000010
Ag      4.845645865962600      0.000000000000004      5.856597262762680
Ag      4.845645865962600      2.967339961458790      5.856597262762690
Ag      4.845645865962600      5.934679922917570      5.856597262762690
Ag     -0.000000000000005      1.483669980729390      6.713194525525370
Ag     -0.000000000000005      4.451009942188180      6.713194525525370
Ag     -0.000000000000004      7.418349903646960      6.713194525525370
Ag      2.422822932981300      0.000000000000004      7.569791788288040
Ag      2.422822932981300      2.967339961458780      7.569791788288050
Ag      2.422822932981300      5.934679922917570      7.569791788288050
Ag      4.845645865962600      1.483669980729390      8.426389051050730
Ag      4.845645865962600      4.451009942188170      8.426389051050730
Ag      4.845645865962600      7.418349903646960      8.426389051050730
Ag     -0.000000000000004      0.000000000000003      9.282986313813410
Ag     -0.000000000000005      2.967339961458780      9.282986313813410
Ag     -0.000000000000004      5.934679922917570      9.282986313813410
Ag      2.422822932981300      1.483669980729390     10.139583576576101
Ag      2.422822932981300      4.451009942188170     10.139583576576101
Ag      2.422822932981300      7.418349903646960     10.139583576576101
Ag      4.845645865962610     -0.000000000000000     10.996180839338800
Ag      4.845645865962610      2.967339961458780     10.996180839338800
Ag      4.845645865962610      5.934679922917570     10.996180839338800
Ag      0.069668290719790      1.486448833994370     11.849205618438701
Ag      0.066686486972626      4.468105511744320     11.872824345477399
Ag      0.065099235553106      7.408647893827260     11.873494437632100
Ag      2.492154139953200     -0.001152380212417     12.799134306096400
Ag      2.491343612526020      2.978439675139490     12.800160420036800
Ag      2.518493039904350      5.941407528404980     12.740997052404699
Ag      4.869510125717500      1.487553012885060     13.592912942618700
Ag      4.915967176254670      4.470643060958690     13.610828060206600
Ag      4.917322746534690      7.407908517981240     13.615123396480699
Ag      0.037931448732454      0.023514574974522     14.384002717710100
Ag      0.035218983949460      2.953235520872970     14.383537480130400
Ag      0.134849853207621      5.935463601945420     14.459306338493700
N       1.627984269990950      5.934427537523350     16.477933589684401
H       2.013803559012230      6.868998671935780     16.610083903256299
H       1.202375276131250      5.646553898672510     17.358174503995201
H       2.411997554907220      5.309795645859620     16.284288614717202
