36

Ni      4.063540000000000      1.258240000000000     17.489840000000001
Ni      4.050480000000000      3.758170000000000     17.490700000000000
Ni      4.063420000000000      6.258160000000000     17.489480000000000
Ni      2.051940000000000      7.516720000000000     16.844040000000000
Ni      2.044910000000000      2.504720000000000     16.840470000000000
Ni      2.044930000000000      5.011640000000000     16.840240000000001
Ni      0.013040000000000      1.252230000000000     16.214300000000001
Ni      0.006340000000000      3.758120000000000     16.216259999999998
Ni      0.013070000000000      6.264480000000000     16.214230000000001
Ni      4.115280000000000      0.000110000000000     15.408690000000000
Ni      4.113210000000000      2.506070000000000     15.404740000000000
Ni      4.113260000000000      5.010270000000000     15.404809999999999
Ni      2.036710000000000      1.251720000000000     14.694500000000000
Ni      2.034300000000000      3.758080000000000     14.694929999999999
Ni      2.036700000000000      6.265120000000000     14.694500000000000
Ni      0.000450000000000      0.000190000000000     13.987600000000000
Ni      0.001260000000000      2.505170000000000     13.987150000000000
Ni      0.001240000000000      5.011280000000000     13.987100000000000
Ni      4.091600000000000      1.252790000000000     13.255170000000000
Ni      4.091600000000000      3.758370000000000     13.255170000000000
Ni      4.091600000000000      6.263950000000000     13.255170000000000
Ni      2.045800000000000      0.000000000000000     12.531870000000000
Ni      2.045800000000000      2.505580000000000     12.531870000000000
Ni      2.045800000000000      5.011160000000000     12.531870000000000
Ni      0.000000000000000      1.252790000000000     11.808570000000000
Ni      0.000000000000000      3.758370000000000     11.808570000000000
Ni      0.000000000000000      6.263950000000000     11.808570000000000
Ni      4.091600000000000      0.000000000000000     11.085270000000000
Ni      4.091600000000000      2.505580000000000     11.085270000000000
Ni      4.091600000000000      5.011160000000000     11.085270000000000
Ni      2.045800000000000      1.252790000000000     10.361969999999999
Ni      2.045800000000000      3.758370000000000     10.361969999999999
Ni      2.045800000000000      6.263950000000000     10.361969999999999
Ni      0.000000000000000      0.000000000000000      9.638669999999999
Ni      0.000000000000000      2.505580000000000      9.638669999999999
Ni      0.000000000000000      5.011160000000000      9.638669999999999
