5

O       1.490516000000000      0.860550000000000     15.555544786061301
Ag     -0.000000118937277     -0.000000105431266     14.264294338208300
Ag      2.981031674772590      1.721099738978710     11.853435618589501
Ag      1.490515998509480      0.860549999139450      9.434002623595370
Ag      0.000000000000000      0.000000000000000      6.999999892088110
