39

Pt      2.237919060857490      1.562991238239870     11.179175178850400
Pt      2.231237209673800      4.386453332225820     11.176004163272999
Au      2.333188102356870      7.412508722362030     11.364753276497099
Au     -0.039487025910824      0.015581563118806     10.776613518855401
Au     -0.122161183443705      2.973137396854100     10.791181378558999
Au     -0.049881122707970      5.930860098613410     10.779348058912900
Au      4.837377636027150      1.478484512357520     10.111012965300000
Au      4.832650827265800      4.466846388362630     10.106575269454700
Au      4.910395260605770      7.425025310146930     10.031284371319400
Au      2.533963961030800     -0.003142148857353      8.917307779544959
Au      2.501508765511720      2.972235847551820      8.823554905809020
Au      2.531103453412860      5.945476172242070      8.907941936362571
Au      0.011297042998814      1.483919629529950      8.183715709997211
Au      0.010470397983473      4.458746517342080      8.183040507140950
Au      0.039915084572928      7.422562805810810      8.180004078749031
Au      4.925075826277740      0.005043485301760      7.327866024024730
Au      4.926942571014860      2.970218734448240      7.324264731259580
Au      4.925186092508020      5.937758188245240      7.323980835987950
Au      2.453335194069010      1.475885326051960      6.403982175130400
Au      2.454945250541030      4.462221222316920      6.400137330908730
Au      2.462512292596590      7.423695143993040      6.430159851566010
Au      0.000000000000000      0.000000000000000      5.603190967659800
Au      0.000000000000000      2.967727130962670      5.603190967659800
Au      0.000000000000000      5.935454350957150      5.603190967659800
Au      4.846998010421470      1.483863609997240      4.746354682392070
Au      4.846998010421470      4.451590740959910      4.746354682392070
Au      4.846998010421470      7.419317871922580      4.746354682392070
Au      2.423498968858250      0.000000000000000      3.889518397124350
Au      2.423498968858250      2.967727130962670      3.889518397124350
Au      2.423498968858250      5.935454350957150      3.889518397124350
Au      0.000000000000000      1.483863609997240      3.032682086574760
Au      0.000000000000000      4.451590740959910      3.032682086574760
Au      0.000000000000000      7.419317871922580      3.032682086574760
Au      4.846998010421470      0.000000000000000      2.175845801307040
Au      4.846998010421470      2.967727130962670      2.175845801307040
Au      4.846998010421470      5.935454350957150      2.175845801307040
Au      2.423498968858250      1.483863609997240      1.319009516039310
Au      2.423498968858250      4.451590740959910      1.319009516039310
Au      2.423498968858250      7.419317871922580      1.319009516039310
