36

Ag      1.493199129237810      0.861673876868044      7.000647688538100
Ag      4.479630275110810      0.861577987794491      6.999765863043050
Ag      7.465091288239520      0.862579575898368      6.999530525614070
Ag      0.000542560043586      3.446785146984050      6.999534270246430
Ag      2.985646792441170      3.445335284432200      6.998275082167490
Ag      5.970247372809970      3.446235733556520      7.000314247332600
Ag      1.491794391009280      6.031272684483170      7.001465648768920
Ag      4.477881468953920      6.032752516389190      6.998575251813790
Ag      7.462967692699480      6.032795910774210      6.998849006422580
Ag      0.000375698018346      8.617520773002230      6.999708306250210
Ag      2.984803123557370      8.619973689876661      6.999986502775260
Ag      5.969751949410250      8.618943956604250      6.998779156350030
Ag      0.000208863595005      1.721664612214550      9.436244650469700
Ag      2.985601691405470      1.724362748918430      9.437744204799790
Ag      5.970694012056820      1.723323178642840      9.436094314528230
Ag      1.491982570876410      4.308600067075110      9.438629958744819
Ag      4.478450863543980      4.307297665690710      9.437896920488001
Ag      7.463126993143590      4.308383783845770      9.438184512807441
Ag      0.001030999522496      6.895428409472830      9.436733618995380
Ag      2.985095617793750      6.894828392785120      9.438548381645720
Ag      5.970330486101360      6.894311470377050      9.436466501544601
Ag      1.491506208460720      9.480746078683760      9.438929076547170
Ag      4.478035235132830      9.480937085759249      9.437934472543651
Ag      7.462866955669400      9.480294948466870      9.439110873085070
Ag     -0.000035826039110      0.001564643655814     11.872525927933101
Ag      2.986226732673980      0.000087047068238     11.874846665686700
Ag      5.970901421115740     -0.001987568914601     11.874926001149399
Ag      1.493059527656310      2.586914317552390     11.874627402818900
Ag      4.477298751651510      2.584934666464060     11.876061075154899
Ag      7.463840826533670      2.584906663303880     11.875658940470300
Ag      0.000097077549348      5.171841492005820     11.874443619943300
Ag      2.985077168023010      5.170480738862160     11.873682158089100
Ag      5.971105780616270      5.171133902287470     11.875150786493800
Ag      1.492467827951430      7.754893899780880     11.874725027714399
Ag      4.477764530737880      7.755506993253710     11.874984387325499
Ag      7.463916126280820      7.758195456424140     11.875320250850001
