41

Pt      2.341049205120260      7.406824691646850     11.351395171125301
Pt      2.341049210482910      4.464083794447380     11.351394893347999
Au      2.360041716285650      1.483863346375850     11.411190824919901
Au      0.005581947338763     -0.010835397812560     10.787345639815200
Au      0.005582160908187      2.978562241100350     10.787345678854200
Au     -0.065274030203860      5.935454290505010     10.684095395870500
Au      4.932686916230650      1.483863473358920     10.039849879866400
Au      4.890556336400110      4.414919899760970     10.014760550722499
Au      4.890556404565790      7.455988487979050     10.014760564871400
Au      2.537716458873760     -0.020582510208327      8.977696114679880
Au      2.537716540587400      2.988309624173180      8.977696387184670
Au      2.548109316466150      5.935454151319380      8.864810423033720
Au      0.048130210865512      1.483863476916240      8.183844794869881
Au      0.045969766000121      4.437820702483020      8.162899765034240
Au      0.045969675094984      7.433087774733470      8.162899888385370
Au      4.912002402864140      0.008219460952095      7.312169623104100
Au      4.912002346414250      2.959507609640990      7.312169713713970
Au      4.940134924960260      5.935454306012760      7.311705564399400
Au      2.453913956611860      1.483863567092100      6.460327056288180
Au      2.457809960286450      4.433277377399840      6.414337653170670
Au      2.457809970152970      7.437631157599230      6.414337669355260
Au      0.000000000000000      0.000000000000000      5.603190967659800
Au      0.000000000000000      2.967727130962670      5.603190967659800
Au      0.000000000000000      5.935454350957150      5.603190967659800
Au      4.846998010421470      1.483863609997240      4.746354682392070
Au      4.846998010421470      4.451590740959910      4.746354682392070
Au      4.846998010421470      7.419317871922580      4.746354682392070
Au      2.423498968858250      0.000000000000000      3.889518397124350
Au      2.423498968858250      2.967727130962670      3.889518397124350
Au      2.423498968858250      5.935454350957150      3.889518397124350
Au      0.000000000000000      1.483863609997240      3.032682086574760
Au      0.000000000000000      4.451590740959910      3.032682086574760
Au      0.000000000000000      7.419317871922580      3.032682086574760
Au      4.846998010421470      0.000000000000000      2.175845801307040
Au      4.846998010421470      2.967727130962670      2.175845801307040
Au      4.846998010421470      5.935454350957150      2.175845801307040
Au      2.423498968858250      1.483863609997240      1.319009516039310
Au      2.423498968858250      4.451590740959910      1.319009516039310
Au      2.423498968858250      7.419317871922580      1.319009516039310
N       2.616806562492070      5.935454306441240     12.646741407713700
O       3.029989429718510      5.935454315534650     13.766733413903900
