66

C       1.410134666666670      0.814141666666667     15.266961423763201
O       1.410134666666670      0.814141666666667     16.447689274271600
Pd     -0.010575739176153     -0.006105653566669     13.982626716182301
Pd      1.410135071916920      2.454637183409110     13.982626716182301
Pd      2.819736720010330      4.884836635688930     13.895602339576600
Pd      4.230150221602060      7.327744014459690     13.895602339576600
Pd      2.830844883009990     -0.006105657896714     13.982626716182301
Pd      4.259449626122710      2.459194740492240     13.896755727577400
Pd      5.639040588320870      4.885715440721030     13.892482377432801
Pd      7.050674071916920      7.293736379069120     13.896755727577400
Pd      5.640259570325200     -0.000454777984531     13.895602339576600
Pd      7.050673071916920      2.440694991117190     13.892482377432801
Pd      8.462306555512949      4.885715440107510     13.892482377432801
Pd      9.871197922231810      7.327744014355340     13.895602339576600
Pd      8.461085573508649     -0.000454778098558     13.895602339576600
Pd      9.841896517711120      2.459194752384350     13.896755727577400
Pd     11.281610423823500      4.884836635470580     13.895602339576600
Pd     12.691212071916899      7.327275290648580     13.895585824098900
Pd      2.818927085569260      1.627508450130320     11.603321350545000
Pd      4.229703284970050      4.070641736164140     11.584163101123700
Pd      5.640246557452810      6.513773884648080     11.584163101123700
Pd      7.050674351665100      8.957108322549599     11.603321350545000
Pd      5.640130079182350      1.627709601735510     11.584163101123700
Pd      7.050673351665100      4.070708407420230     11.586392667454801
Pd      8.461101145877420      6.513773884528180     11.584163101123700
Pd      9.861028478402011      8.961282763258710     11.603530448283299
Pd      8.461215624147879      1.627709601568350     11.584163101123700
Pd      9.871643418360140      4.070641735877090     11.584163101123700
Pd     11.280527176117401      6.512815763584400     11.587690726053900
Pd     12.691212351665101      8.956193695317131     11.587690726053900
Pd     11.282418617760900      1.627508449580750     11.603321350545000
Pd     12.691211351665100      4.059259699802680     11.603530448283299
Pd     14.101896527212800      6.512815763359140     11.587690726053900
Pd     15.521396224928200      8.961282759199291     11.603530448283299
Pd      1.410134665256530      0.814141665852525      9.302740370360000
Pd      2.820269665256530      3.256566665852520      9.302740370360000
Pd      4.230404665256530      5.698991665852530      9.302740370360000
Pd      5.640539665256530      8.141416665852519      9.302740370360000
Pd      4.230403665256530      0.814141665852525      9.302740370360000
Pd      5.640538665256530      3.256566665852520      9.302740370360000
Pd      7.050673665256530      5.698991665852530      9.302740370360000
Pd      8.460808665256531      8.141416665852519      9.302740370360000
Pd      7.050672665256530      0.814141665852525      9.302740370360000
Pd      8.460807665256530      3.256566665852520      9.302740370360000
Pd      9.870942665256530      5.698991665852530      9.302740370360000
Pd     11.281077665256500      8.141416665852519      9.302740370360000
Pd      9.870941665256529      0.814141665852525      9.302740370360000
Pd     11.281076665256499      3.256566665852520      9.302740370360000
Pd     12.691211665256500      5.698991665852530      9.302740370360000
Pd     14.101346665256500      8.141416665852519      9.302740370360000
Pd      0.000000000000000      0.000000000000000      7.000000131988220
Pd      1.410135000000000      2.442425000000000      7.000000131988220
Pd      2.820270000000000      4.884850000000000      7.000000131988220
Pd      4.230405000000000      7.327275000000000      7.000000131988220
Pd      2.820269000000000      0.000000000000000      7.000000131988220
Pd      4.230404000000000      2.442425000000000      7.000000131988220
Pd      5.640539000000000      4.884850000000000      7.000000131988220
Pd      7.050674000000000      7.327275000000000      7.000000131988220
Pd      5.640538000000000      0.000000000000000      7.000000131988220
Pd      7.050673000000000      2.442425000000000      7.000000131988220
Pd      8.460808000000000      4.884850000000000      7.000000131988220
Pd      9.870943000000000      7.327275000000000      7.000000131988220
Pd      8.460807000000001      0.000000000000000      7.000000131988220
Pd      9.870941999999999      2.442425000000000      7.000000131988220
Pd     11.281077000000000      4.884850000000000      7.000000131988220
Pd     12.691212000000000      7.327275000000000      7.000000131988220
