15

Fe      1.294641910971490      0.747461781932703      9.999999400844089
Fe      3.883925727735900      0.747461781932703      9.999999400844089
Fe      2.589283819353690      2.989847123246040      9.999999400844089
Fe      5.178567636118100      2.989847123246040      9.999999400844089
Fe      5.178567630939530      1.494923559380640     12.114140642719800
Fe      2.589283814175130      1.494923559380640     12.114140642719800
Fe      6.473209539321740      3.737308900693970     12.114140642719800
Fe      3.883925722557330      3.737308900693970     12.114140642719800
Fe     -0.032766682415955     -0.005230166478703     14.212924400850200
Fe      2.622083067192210     -0.005212514421297     14.212863830147000
Fe      1.294700612624900      2.234227453746230     13.985989792309400
Fe      3.883933200408990      2.240461908378200     14.017369874577801
O       1.294592691275420     -0.008564701115733     16.627430502425199
H       1.294617677864250      0.784617492624682     17.197920395157301
H       3.883894969633440      3.699456848627650     17.220449958957001
