39

Pt      2.237412699553490      1.463648998623570     10.817917922839399
Pt      2.240147637284090      4.178050544675360     10.820379297352501
Pd      2.313895001051450      7.045003893353000     10.934369145426500
Pd      0.014253951613645     -0.000027291322351     10.204215533443900
Pd     -0.033034405426634      2.821667204784670     10.208702124374600
Pd      0.014628624280522      5.641143920208520     10.205701125924000
Pd      4.598905564389120      1.409629490890040      9.496302696347451
Pd      4.600079410176200      4.232513019964480      9.497084368012960
Pd      4.640307535260350      7.046072574809360      9.464701406890400
Pd      2.323049320749970     -0.010243908499912      8.525054943546261
Pd      2.312416488763530      2.820431232141690      8.463677768042659
Pd      2.323834265515520      5.649401923713920      8.526500508774671
Pd     -0.028203770188355      1.406214686307690      7.761834944966250
Pd     -0.027862711706095      4.232363725353900      7.762101476891910
Pd     -0.013222223411494      7.043306671931530      7.755384391853240
Pd      4.603192275366940      0.003033477457669      6.952808428091390
Pd      4.612184164901550      2.819121150915440      6.949763156042940
Pd      4.603482136655530      5.634868175568500      6.953400742264970
Pd      2.302150062353080      1.406703938410520      6.109065572398100
Pd      2.302332605668980      4.229874332785020      6.109610277638490
Pd      2.302964410785330      7.042184642246620      6.121275234625260
Pd      0.000000000000000      0.000000000000000      5.317490975503690
Pd      0.000000000000000      2.816406281301960      5.317490975503690
Pd      0.000000000000000      5.632812647096100      5.317490975503690
Pd      4.599855390876510      1.408203182897070      4.504343745524810
Pd      4.599855390876510      4.224609464199030      4.504343745524810
Pd      4.599855390876510      7.041015745500980      4.504343745524810
Pd      2.299927660939340      0.000000000000000      3.691196515545930
Pd      2.299927660939340      2.816406281301960      3.691196515545930
Pd      2.299927660939340      5.632812647096100      3.691196515545930
Pd      0.000000000000000      1.408203182897070      2.878049261574280
Pd      0.000000000000000      4.224609464199030      2.878049261574280
Pd      0.000000000000000      7.041015745500980      2.878049261574280
Pd      4.599855390876510      0.000000000000000      2.064902031595410
Pd      4.599855390876510      2.816406281301960      2.064902031595410
Pd      4.599855390876510      5.632812647096100      2.064902031595410
Pd      2.299927660939340      1.408203182897070      1.251754801616530
Pd      2.299927660939340      4.224609464199030      1.251754801616530
Pd      2.299927660939340      7.041015745500980      1.251754801616530
