64

Au      1.484680000000000      1.484680000000000     11.422820000000000
Au      4.454050000000000      1.484680000000000     11.422820000000000
Au      7.423430000000000      1.484680000000000     11.422820000000000
Au     10.392799999999999      1.484680000000000     11.422820000000000
Au      1.484680000000000      4.454050000000000     11.422820000000000
Au      4.454050000000000      4.454050000000000     11.422820000000000
Au      7.423430000000000      4.454050000000000     11.422820000000000
Au     10.392799999999999      4.454050000000000     11.422820000000000
Au      1.484680000000000      7.423430000000000     11.422820000000000
Au      4.454050000000000      7.423430000000000     11.422820000000000
Au      7.423430000000000      7.423430000000000     11.422820000000000
Au     10.392799999999999      7.423430000000000     11.422820000000000
Au      1.484680000000000     10.392799999999999     11.422820000000000
Au      4.454050000000000     10.392799999999999     11.422820000000000
Au      7.423430000000000     10.392799999999999     11.422820000000000
Au     10.392799999999999     10.392799999999999     11.422820000000000
Au      0.000000000000000      0.000000000000000     13.522480000000000
Au      2.969370000000000      0.000000000000000     13.522480000000000
Au      5.938750000000000      0.000000000000000     13.522480000000000
Au      8.908120000000000      0.000000000000000     13.522480000000000
Au      0.000000000000000      2.969370000000000     13.522480000000000
Au      2.969370000000000      2.969370000000000     13.522480000000000
Au      5.938750000000000      2.969370000000000     13.522480000000000
Au      8.908120000000000      2.969370000000000     13.522480000000000
Au      0.000000000000000      5.938750000000000     13.522480000000000
Au      2.969370000000000      5.938750000000000     13.522480000000000
Au      5.938750000000000      5.938750000000000     13.522480000000000
Au      8.908120000000000      5.938750000000000     13.522480000000000
Au      0.000000000000000      8.908120000000000     13.522480000000000
Au      2.969370000000000      8.908120000000000     13.522480000000000
Au      5.938750000000000      8.908120000000000     13.522480000000000
Au      8.908120000000000      8.908120000000000     13.522480000000000
Au      1.489230000000000      1.487750000000000     15.611350000000000
Au      4.459660000000000      1.490600000000000     15.616280000000000
Au      7.418320000000000      1.490650000000000     15.616199999999999
Au     10.390190000000000      1.487260000000000     15.610350000000000
Au      1.490150000000000      4.451430000000000     15.611499999999999
Au      4.460190000000000      4.449860000000000     15.618499999999999
Au      7.417780000000000      4.449840000000000     15.618420000000000
Au     10.389270000000000      4.451950000000000     15.610469999999999
Au      1.486810000000000      7.421900000000000     15.608810000000000
Au      4.457630000000000      7.419300000000000     15.613420000000000
Au      7.419820000000000      7.419210000000000     15.613410000000000
Au     10.390580000000000      7.422190000000000     15.608969999999999
Au      1.486040000000000     10.393390000000000     15.608610000000001
Au      4.457330000000000     10.394970000000001     15.611499999999999
Au      7.420110000000000     10.395070000000000     15.611510000000001
Au     10.391340000000000     10.393110000000000     15.608770000000000
Au      0.000080000000000      0.001690000000000     17.668389999999999
Au      2.970750000000000      0.000320000000000     17.669689999999999
Au      5.938730000000000      0.005870000000000     17.682140000000000
Au      8.906990000000000      0.000760000000000     17.669180000000001
Au      0.002070000000000      2.969950000000000     17.672310000000000
Au      2.976510000000000      2.969060000000000     17.684590000000000
Au      5.940520000000000      2.969730000000000     17.708369999999999
Au      8.906100000000000      2.969120000000000     17.681960000000000
Au      0.000080000000000      5.936820000000000     17.668320000000001
Au      2.969900000000000      5.937820000000000     17.673850000000002
Au      5.938770000000000      5.934590000000000     17.687480000000001
Au      8.907880000000000      5.937440000000000     17.673390000000001
Au      0.000040000000000      8.907420000000000     17.669010000000000
Au      2.971190000000000      8.907790000000000     17.670620000000000
Au      5.938800000000000      8.909050000000001     17.677040000000002
Au      8.906050000000000      8.907800000000000     17.670809999999999
