18

N       1.375707000000000      0.794264666666667     15.103190234991100
O       1.375707000000000      0.794264666666667     16.314316315278301
Ir     -0.026202175615029     -0.015128693619190     13.744482749207400
Ir      1.375707433347710      2.413049564400980     13.744482749207400
Ir      2.777617042310440     -0.015128693619190     13.744482749207400
Ir      4.127121433347710      2.382793392387530     13.656674924403800
Ir      2.751178660465420      1.588391367872480     11.459096880976700
Ir      4.127121579172650      3.971593991131920     11.459096880976700
Ir      5.503064497879860      1.588391367872480     11.459096880976700
Ir      6.878535579172650      3.971321575625630     11.456182580677901
Ir      1.375706998624290      0.794264665872402      9.246519955156160
Ir      2.751413998624290      3.177058665872400      9.246519955156160
Ir      4.127120998624290      0.794264665872402      9.246519955156160
Ir      5.502827998624290      3.177058665872400      9.246519955156160
Ir      0.000000000000000      0.000000000000000      6.999999844728920
Ir      1.375707000000000      2.382794000000000      6.999999844728920
Ir      2.751414000000000      0.000000000000000      6.999999844728920
Ir      4.127121000000000      2.382794000000000      6.999999844728920
