12

Zr      1.605305556274780      0.926823602931880      9.999999147117739
Zr      4.815916829069770      0.926823602931880      9.999999147117739
Zr      3.210610942672290      3.707294406166580      9.999999147117739
Zr      6.421222215467280      3.707294406166580      9.999999147117739
Zr      6.421222375712720      1.853647200302820     12.621452106819000
Zr      3.210611102917730      1.853647200302820     12.621452106819000
Zr      8.026527762110231      4.634118003537520     12.621452106819000
Zr      4.815916489315240      4.634118003537520     12.621452106819000
Zr     -0.000015160492425     -0.000155761974397     15.110840224728500
Zr      3.210620644572530     -0.000035973731252     15.110700151853001
Zr      1.605408626803910      2.780578641014330     15.110767979536700
Zr      4.815809113338000      2.780567524692060     15.110794812743800
