40

Rh      2.226957159192120      1.363727179764670      5.000000000000000
Rh      2.226957159192120      4.091181539294000      5.000000000000000
Rh      2.226957159192120      6.818635898823330      5.000000000000000
Rh      4.453914318384230      0.000000000000001      5.787348254338340
Rh      4.453914318384230      2.727454359529330      5.787348254338340
Rh      4.453914318384230      5.454908719058660      5.787348254338340
Rh     -0.000000000000000      4.091181539294000      6.574696508676680
Rh     -0.000000000000000      1.363727179764670      6.574696508676680
Rh     -0.000000000000000      6.818635898823320      6.574696508676680
Rh      2.226957159192120      0.000000000000001      7.362044763015020
Rh      2.226957159192120      2.727454359529330      7.362044763015020
Rh      2.226957159192120      5.454908719058660      7.362044763015020
Rh      4.453914318384240      1.363727179764660      8.149393017353360
Rh      4.453914318384230      4.091181539293990      8.149393017353360
Rh      4.453914318384240      6.818635898823320      8.149393017353360
Rh     -0.000000000000001      0.000000000000001      8.936741271691689
Rh     -0.000000000000001      2.727454359529330      8.936741271691689
Rh     -0.000000000000001      5.454908719058660      8.936741271691689
Rh      2.226957159192120      1.363727179764660      9.724089526030030
Rh      2.226957159192120      4.091181539293990      9.724089526030030
Rh      2.226957159192120      6.818635898823320      9.724089526030030
Rh      4.453914318384240      0.000000000000001     10.511437780368400
Rh      4.453914318384240      2.727454359529330     10.511437780368400
Rh      4.453914318384240      5.454908719058660     10.511437780368400
Rh      0.021721470057706      1.365212691959310     11.261422875237001
Rh      0.020385211155177      4.106673110979300     11.272872675672801
Rh      0.021281996526944      6.804898843188870     11.273241294358501
Rh      2.249835792302000      0.002021147714249     12.134275717188199
Rh      2.248781131076800      2.727711718404480     12.133269899771300
Rh      2.252319552360860      5.456474101959970     12.112250322181000
Rh      4.444883356793340      1.366008946319820     12.822650158318501
Rh      4.473893282297600      6.810302970280320     12.825981115942501
Rh      4.471688329573910      4.099564689319000     12.826634607491799
Rh     -0.058512395443457      0.017197107471707     13.520320529335800
Rh     -0.056434411829510      2.713287229244580     13.521933455017400
Rh      0.039002106268771      5.456748323675310     13.597975326688999
N       1.025245590439900      5.448148830534040     15.563621922240900
H       1.277561665777500      6.397719579861110     15.836844505722899
H       0.458813900552260      5.038051362529220     16.304747962494499
H       1.887100830153610      4.907904951663150     15.472882245803600
