16

Bi      1.791813000000000      1.791813000000000      9.999998948153699
Bi      0.000000000000000      0.000000000000000     12.534005062650600
Bi      1.791846482983140      1.791765338388790     15.207408723563599
Bi      0.000065461629214     -0.000000981064120     17.514642872315900
Bi      1.791813000000000      5.375439000000000      9.999998948153699
Bi      0.000000000000000      3.583626000000000     12.534005062650600
Bi      1.791805205653740      5.375478941337260     15.207418853468500
Bi      0.000022625263943      3.583625554725700     17.514669620905000
Bi      5.375439000000000      1.791813000000000      9.999998948153699
Bi      3.583626000000000      0.000000000000000     12.534005062650600
Bi      5.375402920506100      1.791827757620930     15.207352591783501
Bi      3.583559546859810      0.000037847416122     17.514612475469399
Bi      5.375439000000000      5.375439000000000      9.999998948153699
Bi      3.583626000000000      3.583626000000000     12.534005062650600
Bi      5.375438208136950      5.375422509945160     15.207393760630200
Bi      3.583608264581770      3.583596647725040     17.514656660823000
