16

Pt      0.000000000000000      0.000000000000000      0.000000000000000
Pt      2.757210000000000      0.000000000000000      0.000000000000000
Pt      1.378610000000000      2.387820000000000      0.000000000000000
Pt      4.135820000000000      2.387820000000000      0.000000000000000
Pt      1.378610000000000      0.795940000000000      2.251260000000000
Pt      4.135820000000000      0.795940000000000      2.251260000000000
Pt      2.757210000000000      3.183760000000000      2.251260000000000
Pt      5.514430000000000      3.183760000000000      2.251260000000000
Pt      5.514380000000000      1.591870000000000      4.469670000000000
Pt      2.757260000000000      1.591900000000000      4.469540000000000
Pt      6.893070000000000      3.979720000000000      4.469420000000000
Pt      4.135790000000000      3.979660000000000      4.469650000000000
Pt     -0.000030000000000     -0.000020000000000      6.730030000000000
Pt      2.757250000000000      0.000000000000000      6.729620000000000
Pt      1.378630000000000      2.387850000000000      6.729700000000000
Pt      4.135800000000000      2.387810000000000      6.730390000000000
