18

Fe      1.291367000000000      1.291367000000000     10.000000763178599
Fe      0.000000000000000      0.000000000000000     11.826268071766000
Fe      1.290078103657040      1.289570975272890     13.866807734978501
Fe      0.000024666563408      0.000070050106179     15.833801796200900
Fe      1.291367000000000      3.874101000000000     10.000000763178599
Fe      0.000000000000000      2.582734000000000     11.826268071766000
Fe      1.289866548190870      3.875541864564540     13.866706288722501
Fe     -0.000155873598089      2.582696746657980     15.957521167169000
Fe      3.874101000000000      1.291367000000000     10.000000763178599
Fe      2.582734000000000      0.000000000000000     11.826268071766000
Fe      3.875747612658900      1.289811763297930     13.866811413337199
Fe      2.582779360348870      0.000030424283390     15.958126027445800
Fe      3.874101000000000      3.874101000000000     10.000000763178599
Fe      2.582734000000000      2.582734000000000     11.826268071766000
Fe      3.875535454475500      3.875792903037080     13.866721357060500
Fe      2.582579686513220      2.582669446014350     15.775753611241200
O      -0.000005876235281     -0.000065578410442     18.856406062895800
C      -0.000012636726360     -0.000094124299765     17.695129060673100
