38

Ir      1.376526510342030      0.794312908941506      7.000647688538100
Ir      4.129612418423470      0.794217019867954      6.999765863043050
Ir      6.881728193760610      0.795218607971830      6.999530525614060
Ir      0.000542560043586      3.177341275277900      6.999534270246430
Ir      2.752301554649610      3.175891412726050      6.998275082167490
Ir      5.503556897226850      3.176791861850370      7.000314247332590
Ir      1.375121772113500      5.559745908997410      7.001465648768920
Ir      4.127863612266580      5.561225740903430      6.998575251813790
Ir      6.879604598220580      5.561269135288450      6.998849006422580
Ir      0.000375698018346      7.943911093736860      6.999708306250210
Ir      2.751457885765810      7.946364010611280      6.999986502775260
Ir      5.503061473827130      7.945334277338880      6.998779156350030
Ir      0.000208863595005      1.586942676361470      9.245719061637120
Ir      2.752256453613910      1.589640813065350      9.247218615967210
Ir      5.504003536473700      1.588601242789770      9.245568725695660
Ir      1.375309951980630      3.971795227442430      9.248104369912239
Ir      4.128433006856630      3.970492826058020      9.247371331655421
Ir      6.879763898664690      3.971578944213080      9.247658923974861
Ir      0.001030999522496      6.356540666060530      9.246208030162800
Ir      2.751750380002190      6.355940649372820      9.248022792813151
Ir      5.503640010518240      6.355423726964760      9.245940912712021
Ir      1.374833589564940      8.739775431491839      9.248403487714590
Ir      4.128017378445480      8.739966438567340      9.247408883711071
Ir      6.879503861190500      8.739324301274960      9.248585284252490
Ir     -0.000782997964353      0.000781165122449     11.431758256224599
Ir      2.751847746176080      0.000080595925015     11.430819720540500
Ir      5.503460632230950      0.000972501613522     11.431294874605801
Ir      1.365042470718190      2.361956081238160     11.425316741406800
Ir      4.138122468996430      2.361879067069270     11.425355150070400
Ir      6.879827252239590      2.378651608378080     11.430783839213699
Ir     -0.024813996559724      4.768899098235740     11.422516488375001
Ir      2.751551971669060      4.768450857046380     11.644618339114700
Ir      5.527727669050320      4.768782543031500     11.422256184188400
Ir      1.359648045471010      7.170845475805170     11.424083304285800
Ir      4.143812966227030      7.170753401299010     11.423461117349699
Ir      6.879547544876750      7.153717862259530     11.430530851365200
O       2.751819037094770      4.888462814694910     14.652946340306601
C       2.751626811217880      4.831021305718280     13.501686775376600
