43

Au      4.554380000000000      1.475860000000000     14.746430000000000
Au      4.546700000000000      4.449290000000000     14.723570000000000
Au      4.545020000000000      7.422270000000000     14.733670000000000
Au      2.182580000000000      0.005070000000000     14.105270000000001
Au      2.182470000000000      2.954730000000000     14.101630000000000
Au      2.194000000000000      5.949950000000000     14.052659999999999
Au      7.158140000000000      1.483830000000000     13.303820000000000
Au      7.162700000000000      4.450850000000000     13.307550000000001
Au      7.160330000000000      7.428770000000000     13.303690000000000
Au      4.849880000000000      0.000000000000000     12.286730000000000
Au      4.849880000000000      2.969930000000000     12.286730000000000
Au      4.849880000000000      5.939870000000000     12.286730000000000
Au      2.424940000000000      1.484970000000000     11.429380000000000
Au      2.424940000000000      4.454900000000000     11.429380000000000
Au      2.424940000000000      7.424830000000000     11.429380000000000
Au      0.000000000000000      0.000000000000000     10.572039999999999
Au      0.000000000000000      2.969930000000000     10.572039999999999
Au      0.000000000000000      5.939870000000000     10.572039999999999
Au      4.849880000000000      1.484970000000000      9.714689999999999
Au      4.849880000000000      4.454900000000000      9.714689999999999
Au      4.849880000000000      7.424830000000000      9.714689999999999
Au      2.424940000000000      0.000000000000000      8.857350000000000
Au      2.424940000000000      2.969930000000000      8.857350000000000
Au      2.424940000000000      5.939870000000000      8.857350000000000
Au      0.000000000000000      1.484970000000000      8.000000000000000
Au      0.000000000000000      4.454900000000000      8.000000000000000
Au      0.000000000000000      7.424830000000000      8.000000000000000
H       5.101870000000000      8.134370000000001     19.062619999999999
H       1.807190000000000      5.371900000000000     16.597049999999999
H       3.767870000000000      4.792730000000000     18.336600000000001
H       4.362900000000000      6.062590000000000     19.023340000000001
H       3.557210000000000      8.241800000000000     18.993200000000002
H       2.117640000000000      1.145590000000000     17.994129999999998
H       2.443120000000000      0.157540000000000     16.852250000000002
H       6.348120000000000      8.468719999999999     16.802800000000001
H       0.329650000000000      8.401450000000001     17.713760000000001
H       1.311600000000000      3.949600000000000     16.601400000000002
O       1.289620000000000      4.754220000000000     17.161999999999999
O       4.611580000000000      5.198650000000000     18.597909999999999
O       4.283480000000000      7.814520000000000     19.494019999999999
O       2.123110000000000      0.194260000000000     17.783960000000000
O       6.701050000000000      8.021440000000000     17.598870000000002
Na      6.356010000000000      5.685480000000000     17.151789999999998
