66

N       1.375707000000000      0.794264666666667     15.099686668032300
O       1.375707000000000      0.794264666666667     16.313656173165601
Ir     -0.027061723465325     -0.015623756600138     13.765317278371000
Ir      1.375707026502320      2.414041392200430     13.765316404870100
Ir      2.746814002037120      4.760641009668360     13.666857152515400
Ir      4.129104956164660      7.154839324141750     13.666857314249100
Ir      2.778475691465710     -0.015623634810706     13.765317173434999
Ir      4.171265389237110      2.408280550845770     13.672177534255500
Ir      5.498079550201040      4.768329181330020     13.669484415387000
Ir      6.878535064386680      7.097408273521310     13.672176527045799
Ir      5.496243139309500     -0.001510780429378     13.666856771481299
Ir      6.878534933970210      2.377311561943570     13.669483858423501
Ir      8.258990333053250      4.768329069730630     13.669484206476699
Ir      9.627965078203911      7.154839425420230     13.666857339550999
Ir      8.260826855976410     -0.001510928202878     13.666856756930800
Ir      9.585804556349141      2.408280799193170     13.672177294945399
Ir     11.010256097755500      4.760640968345720     13.666856987583801
Ir     12.381362953235900      7.148381926472090     13.669422570085400
Ir      2.746426011898430      1.585649343663760     11.464831242418800
Ir      4.123983528168360      3.969543051137100     11.459004900971401
Ir      5.502800870006680      6.357724410552580     11.459004951685101
Ir      6.878535048441870      8.742670980703259     11.464831255184000
Ir      5.499717615573280      1.586702196182000     11.459004987728401
Ir      6.878534952613430      3.971323252152570     11.453226202375300
Ir      8.254269179394051      6.357724421301210     11.459004972583401
Ir      9.624090087317621      8.740293765781731     11.458977736116600
Ir      8.257352395219330      1.586702153121630     11.459005013367500
Ir      9.633086529679311      3.969543123595820     11.459004951935000
Ir     11.007960290539300      6.355447627381790     11.457415321159999
Ir     12.381362970461799      8.734250420940800     11.457415357006299
Ir     11.010644099797000      1.585649322601840     11.464831239994600
Ir     12.381363012413400      3.964558099273540     11.458977610614500
Ir     13.754765664095700      6.355447587453570     11.457415245252101
Ir     15.138635974181501      8.740293808599620     11.458977715439900
Ir      1.375706998624290      0.794264665872402      9.246519955156160
Ir      2.751413998624290      3.177058665872400      9.246519955156160
Ir      4.127120998624290      5.559852665872400      9.246519955156160
Ir      5.502827998624290      7.942646665872400      9.246519955156160
Ir      4.127120998624290      0.794264665872402      9.246519955156160
Ir      5.502827998624290      3.177058665872400      9.246519955156160
Ir      6.878534998624290      5.559852665872400      9.246519955156160
Ir      8.254241998624289      7.942646665872400      9.246519955156160
Ir      6.878534998624290      0.794264665872402      9.246519955156160
Ir      8.254241998624289      3.177058665872400      9.246519955156160
Ir      9.629948998624290      5.559852665872400      9.246519955156160
Ir     11.005655998624301      7.942646665872400      9.246519955156160
Ir      9.629948998624290      0.794264665872402      9.246519955156160
Ir     11.005655998624301      3.177058665872400      9.246519955156160
Ir     12.381362998624301      5.559852665872400      9.246519955156160
Ir     13.757069998624299      7.942646665872400      9.246519955156160
Ir      0.000000000000000      0.000000000000000      6.999999844728920
Ir      1.375707000000000      2.382794000000000      6.999999844728920
Ir      2.751414000000000      4.765588000000000      6.999999844728920
Ir      4.127121000000000      7.148382000000000      6.999999844728920
Ir      2.751414000000000      0.000000000000000      6.999999844728920
Ir      4.127121000000000      2.382794000000000      6.999999844728920
Ir      5.502828000000000      4.765588000000000      6.999999844728920
Ir      6.878535000000000      7.148382000000000      6.999999844728920
Ir      5.502828000000000      0.000000000000000      6.999999844728920
Ir      6.878535000000000      2.382794000000000      6.999999844728920
Ir      8.254242000000000      4.765588000000000      6.999999844728920
Ir      9.629949000000000      7.148382000000000      6.999999844728920
Ir      8.254242000000000      0.000000000000000      6.999999844728920
Ir      9.629949000000000      2.382794000000000      6.999999844728920
Ir     11.005656000000000      4.765588000000000      6.999999844728920
Ir     12.381363000000000      7.148382000000000      6.999999844728920
