40

Co      2.002910166284420      1.226526977007460      5.000000000000000
Co      2.002910166284420      3.679580931022380      5.000000000000000
Co      2.002910166284420      6.132634885037290      5.000000000000000
Co      4.005820332568840      0.000000000000000      5.708135680343590
Co      4.005820332568840      2.453053954014920      5.708135680343600
Co      4.005820332568840      4.906107908029830      5.708135680343600
Co      0.000000000000000      1.226526977007460      6.416271360687190
Co      0.000000000000000      3.679580931022380      6.416271360687190
Co     -0.000000000000000      6.132634885037290      6.416271360687190
Co      2.002910166284420      0.000000000000001      7.124407041030780
Co      2.002910166284420      2.453053954014920      7.124407041030780
Co      2.002910166284420      4.906107908029830      7.124407041030780
Co      4.005820332568840      1.226526977007460      7.832542721374380
Co      4.005820332568840      3.679580931022380      7.832542721374380
Co      4.005820332568840      6.132634885037290      7.832542721374380
Co     -0.000000000000001      0.000000000000001      8.540678401717971
Co     -0.000000000000001      2.453053954014920      8.540678401717971
Co     -0.000000000000001      4.906107908029830      8.540678401717971
Co      2.002910166284420      1.226526977007460      9.248814082061561
Co      2.002910166284420      3.679580931022380      9.248814082061569
Co      2.002910166284420      6.132634885037290      9.248814082061569
Co      4.005820332568840      0.000000000000000      9.956949762405159
Co      4.005820332568840      2.453053954014920      9.956949762405159
Co      4.005820332568840      4.906107908029830      9.956949762405159
Co      0.005228919470609      1.227098012967700     10.716512766694599
Co      0.003678355319966      3.691301302390220     10.737855037528700
Co      0.004166109186955      6.121476493839220     10.737031941634900
Co      2.016190337223710      2.456037262003620     11.470319623086301
Co      2.015276598388880     -0.010516039604276     11.470348514801399
Co      2.031618107377020      4.900895505698070     11.444843710086500
Co      4.007352437256500      1.226851134511540     12.106428109744300
Co      4.049793382850360      3.687306199624150     12.114096216771999
Co      4.046480202419100      6.122136651024010     12.112424336028299
Co     -0.009079566163308      0.034189130803369     12.797912171056099
Co     -0.002844626116247      2.432199394198200     12.802954350206900
Co      0.086444756492885      4.914992688506510     12.905136153320299
N       1.062069098675820      4.943756478413060     14.768459095582800
H       1.218382715239640      5.884949462311700     15.132512964245700
H       0.577688799627796      4.406496696972720     15.488157201925601
H       1.981330338814090      4.521604254994050     14.615761353672900
