45

Rh      1.588881311694840      1.965730827894390      7.350000000000000
Rh      4.312677846028860      1.965730827894390      7.350000000000000
Rh      7.036474380362880      1.965730827894390      7.350000000000000
Rh      2.950779578861850      4.324607821367660      7.350000000000000
Rh      5.674576113195870      4.324607821367660      7.350000000000000
Rh      8.398372647529881      4.324607821367660      7.350000000000000
Rh      4.312677846028860      6.683484814840930      7.350000000000000
Rh      7.036474380362880      6.683484814840930      7.350000000000000
Rh      9.760270914696889      6.683484814840930      7.350000000000000
Rh      1.588881311694840      0.393146165578879      9.573970557426509
Rh      4.312677846028860      0.393146165578879      9.573970557426509
Rh      7.036474380362880      0.393146165578879      9.573970557426509
Rh      2.950779578861850      2.752023159052150      9.573970557426509
Rh      5.674576113195870      2.752023159052150      9.573970557426509
Rh      8.398372647529881      2.752023159052150      9.573970557426509
Rh      4.312677846028860      5.110900152525420      9.573970557426509
Rh      7.036474380362880      5.110900152525420      9.573970557426509
Rh      9.760270914696889      5.110900152525420      9.573970557426509
Rh      2.950780511946530      1.179437645402420     11.796474964060700
Rh      5.676090128069370      1.179568622865290     11.789903097306899
Rh      8.396854819966430      1.179570018934840     11.789900546270800
Rh      4.313546929511510      3.539557306446840     11.789903481964499
Rh      7.036476874366460      3.538313137903280     11.786911641522300
Rh      9.759397658682410      3.539561558393520     11.789901289755200
Rh      5.673932241067410      5.895812572091320     11.789900455459200
Rh      8.399017218149581      5.895810623025600     11.789901563285399
Rh     11.122163217014799      5.897190409302160     11.787435080473800
Rh      1.592163948645280      1.963839880826760     14.007268515464000
Rh      4.309397305520430      1.963834747667430     14.007271524755099
Rh      7.036474083132120      1.962638613196940     13.988124098417600
Rh      2.950775990001430      4.323603970953600     14.010147543583200
Rh      5.671898045285020      4.326153295183710     13.988118075313499
Rh      8.401054857551870      4.326155593599790     13.988121420415100
Rh      4.313545496997770      6.683987488498940     14.010151374268300
Rh      7.036479337404300      6.687275125285410     14.007266704113400
Rh      9.759402465462610      6.683984607967630     14.010142454603200
Rh      1.587440587593170      0.392319531605355     16.205059555683601
Rh      4.314131403450060      0.392319791067726     16.205071026553998
Rh      7.036474987468400      0.368539476555910     16.202988494686000
Rh      2.950787002126200      2.753695195690640     16.205067873983602
Pt      5.660045195810990      2.743640941205740     16.285906914201501
Pt      8.412928725411620      2.743626370513020     16.285903609403501
Rh      4.291362596321510      5.123210306978190     16.202990939220498
Pt      7.036474532944950      5.127714542044230     16.285900669909200
Rh      9.781590020155180      5.123211426906920     16.202987202025099
