32

Fe     -0.001433469246692      0.002617713369642      5.998918093191200
Fe      2.021942330990160      1.432338972150670      5.998624793202990
Fe     -0.001325594681311      2.863679426719160      5.997443265687390
Fe      2.021935986198990      4.295424855871800      5.998685804142670
Fe      2.022503426159410      0.001447854711051      8.014401502846191
Fe     -0.000699354081479      1.432172080034960      8.013285775606789
Fe      2.022622954008690      2.863153907361920      8.010782546652340
Fe     -0.000850676157189      4.293639888629660      8.011197653450591
Fe     -0.000000000000001      0.000000000000000     10.046758703547001
Fe      2.023379351773510      1.430745260551890     10.046758703547001
Fe     -0.000000000000001      2.861490521103780     10.046758703547001
Fe      2.023379351773510      4.292235781655670     10.046758703547001
Fe      2.023379351773510      0.000000000000000     12.070138055320500
Fe     -0.000000000000000      1.430745260551890     12.070138055320500
Fe      2.023379351773510      2.861490521103780     12.070138055320500
Fe     -0.000000000000000      4.292235781655670     12.070138055320500
Fe     -0.000000000000000      0.000000000000000     14.093517407094000
Fe      2.023379351773510      1.430745260551890     14.093517407094000
Fe     -0.000000000000000      2.861490521103780     14.093517407094000
Fe      2.023379351773510      4.292235781655670     14.093517407094000
Fe      1.953047794563470     -0.039645066489696     16.157695031915900
Fe     -0.062022264987143      1.399518854916280     16.084606352451701
Fe      1.960724004414530      2.849352856326640     16.137927382356200
Fe     -0.054310269331871      4.298152758453740     16.098201719423201
Fe     -0.166218191861886      0.002431071736673     18.038385653427600
Fe      1.857703236725060      1.419946730301230     18.094141416497401
Fe     -0.174496052910314      2.855347981467580     18.029986241345501
Fe      1.855512912155420      4.235435615704680     18.301861788576499
N       1.769005327826450      4.216707523427480     20.484616284855701
H       1.720511949021260      5.180019978255270     20.823862875024599
H       0.938294337243024      3.725391439495610     20.817073158361900
H       2.571417364548780      3.767730320329220     20.928756402852599
