41

Cu      4.325820000000000      0.455980000000000     11.220780000000000
Cu      6.849220000000000      0.227990000000000     11.802060000000001
Cu      0.000000000000000      0.000000000000000     12.383340000000000
Cu      5.407280000000000      2.051920000000000     12.964620000000000
Cu      7.930680000000000      1.823930000000000     13.545890000000000
Cu     10.454070000000000      1.595940000000000     14.127170000000000
Cu      3.604860000000000      1.367950000000000     14.708449999999999
Cu      6.114760000000000      1.159830000000000     15.288779999999999
Cu      8.657090000000000      0.919040000000000     15.864580000000000
Cu      1.837600000000000      0.681950000000000     16.455430000000000
Cu      4.335540000000000      0.454020000000000     17.041640000000001
Cu      6.874010000000000      0.234870000000000     17.541979999999999
Cu      8.649520000000001      6.819760000000000     18.117870000000000
Cu      7.209710000000000      2.735900000000000     11.220780000000000
Cu      9.733100000000000      2.507900000000000     11.802060000000001
Cu      2.883890000000000      2.279910000000000     12.383340000000000
Cu      8.291169999999999      4.331830000000000     12.964620000000000
Cu     10.814570000000000      4.103840000000000     13.545890000000000
Cu     13.337960000000001      3.875850000000000     14.127170000000000
Cu      6.488740000000000      3.647860000000000     14.708449999999999
Cu      9.017440000000001      3.456520000000000     15.308999999999999
Cu     11.520379999999999      3.222590000000000     15.869999999999999
Cu      4.720920000000000      2.937730000000000     16.499450000000000
Cu      7.224980000000000      2.735510000000000     17.036860000000001
Cu      9.738610000000000      2.444980000000000     17.552740000000000
Cu     12.242580000000000      2.307740000000000     18.077670000000001
Cu     10.093600000000000      5.015810000000000     11.220780000000000
Cu     12.616989999999999      4.787820000000000     11.802060000000001
Cu      5.767780000000000      4.559830000000000     12.383340000000000
Cu     11.175060000000000      6.611750000000000     12.964620000000000
Cu     13.698449999999999      6.383760000000000     13.545890000000000
Cu     16.221850000000000      6.155760000000000     14.127170000000000
Cu      9.372629999999999      5.927770000000000     14.708449999999999
Cu     11.856330000000000      5.707630000000000     15.310210000000000
Cu     14.404019999999999      5.496180000000000     15.853140000000000
Cu      7.566850000000000      5.221490000000000     16.446739999999998
Cu     10.135820000000001      4.962190000000000     17.239840000000001
Cu     12.660539999999999      4.779870000000000     17.547239999999999
Cu     15.133380000000001      4.599490000000000     18.071459999999998
C       9.568180000000000      5.334720000000000     19.101720000000000
O       9.592440000000000      5.002730000000000     20.236090000000001
