38

Pd      4.562510000000000      1.400490000000000     19.737710000000000
Pd      4.560230000000000      4.191760000000000     19.764790000000001
Pd      4.555160000000000      7.017120000000000     19.649609999999999
Pd      2.281320000000000      8.428220000000000     18.907660000000000
Pd      2.255080000000000      2.807220000000000     18.904280000000000
Pd      2.281440000000000      5.615550000000000     18.909870000000002
Pd      0.009890000000000      1.393710000000000     18.193760000000001
Pd      0.006390000000000      4.223670000000000     18.201670000000000
Pd      6.878270000000000      7.025350000000000     18.195900000000002
Pd      4.601630000000000      0.009950000000000     17.304620000000000
Pd      4.601670000000000      2.810000000000000     17.295210000000001
Pd      4.600440000000000      5.599390000000000     17.310960000000001
Pd      2.277370000000000      1.403160000000000     16.479140000000001
Pd      2.274660000000000      4.215250000000000     16.479559999999999
Pd      2.283350000000000      7.025010000000000     16.490030000000001
Pd      6.874240000000000      0.000560000000000     15.693880000000000
Pd      6.875060000000000      2.811280000000000     15.690670000000001
Pd      6.872180000000000      5.620030000000000     15.696339999999999
Pd      4.590610000000000      1.405580000000000     14.871770000000000
Pd      4.590610000000000      4.216740000000000     14.871770000000000
Pd      4.590610000000000      7.027900000000000     14.871770000000000
Pd      2.295300000000000      0.000000000000000     14.060260000000000
Pd      2.295300000000000      2.811160000000000     14.060260000000000
Pd      2.295300000000000      5.622330000000000     14.060260000000000
Pd      0.000000000000000      1.405580000000000     13.248740000000000
Pd      0.000000000000000      4.216740000000000     13.248740000000000
Pd      0.000000000000000      7.027900000000000     13.248740000000000
Pd      4.590610000000000      0.000000000000000     12.437239999999999
Pd      4.590610000000000      2.811160000000000     12.437239999999999
Pd      4.590610000000000      5.622330000000000     12.437239999999999
Pd      2.295300000000000      1.405580000000000     11.625719999999999
Pd      2.295300000000000      4.216740000000000     11.625719999999999
Pd      2.295300000000000      7.027900000000000     11.625719999999999
Pd      0.000000000000000      0.000000000000000     10.814209999999999
Pd      0.000000000000000      2.811160000000000     10.814209999999999
Pd      0.000000000000000      5.622330000000000     10.814209999999999
O       4.630480000000000      2.758570000000000     22.347290000000001
C       4.614810000000000      2.777980000000000     21.156110000000002
