35

Cu      2.456700000000000      2.174820000000000     11.303110000000000
Cu      4.913380000000000      1.702040000000000     12.010680000000001
Cu      0.491360000000000      1.229240000000000     12.718550000000000
Cu      2.948030000000000      0.756470000000000     13.426110000000000
Cu      5.404710000000000      0.283670000000000     14.133680000000000
Cu      1.474020000000000      2.363950000000000     14.841250000000000
Cu      3.914440000000000      1.881450000000000     15.543500000000000
Cu      6.402170000000000      1.433160000000000     16.264720000000001
Cu      1.985120000000000      0.948540000000000     17.023370000000000
Cu      4.430300000000000      0.473240000000000     17.613530000000001
Cu      6.861410000000000      0.011470000000000     18.282440000000001
Cu      2.948040000000000      4.727870000000000     11.303110000000000
Cu      5.404720000000000      4.255100000000000     12.010680000000001
Cu      0.982690000000000      3.782300000000000     12.718550000000000
Cu      3.439370000000000      3.309520000000000     13.426110000000000
Cu      5.896040000000000      2.836720000000000     14.133680000000000
Cu      1.965360000000000      4.917000000000000     14.841250000000000
Cu      4.403280000000000      4.460300000000000     15.545769999999999
Cu      6.871020000000000      3.977310000000000     16.204750000000001
Cu      2.493870000000000      3.493280000000000     16.948910000000001
Cu      4.912780000000000      3.026480000000000     17.591290000000001
Cu      7.353690000000000      2.572580000000000     18.334569999999999
Cu      3.439370000000000      7.280930000000000     11.303110000000000
Cu      5.896050000000000      6.808150000000000     12.010680000000001
Cu      1.474030000000000      6.335350000000000     12.718550000000000
Cu      3.930700000000000      5.862580000000000     13.426110000000000
Cu      6.387380000000000      5.389780000000000     14.133680000000000
Cu      2.456690000000000      7.470060000000000     14.841250000000000
Cu      4.880080000000000      7.011070000000000     15.550530000000000
Cu      7.372690000000000      6.509300000000000     16.265630000000002
Cu      2.955380000000000      6.044170000000000     17.015509999999999
Cu      5.393860000000000      5.594300000000000     17.598050000000001
Cu      7.822710000000000      5.111310000000000     18.337800000000001
C       0.833510000000000      3.828420000000000     19.836800000000000
O       0.891350000000000      3.798570000000000     21.016919999999999
