36

Au      1.495320449581370      0.862898621739435      7.000647688538100
Au      4.485994236141490      0.862802732665883      6.999765863043050
Au      7.475697889957310      0.863804320769759      6.999530525614070
Au      0.000542560043586      3.451684126469610      6.999534270246430
Au      2.989889433128290      3.450234263917770      6.998275082167490
Au      5.978732654184200      3.451134713042090      7.000314247332600
Au      1.493915711352840      6.039845898582910      7.001465648768920
Au      4.484245429984600      6.041325730488930      6.998575251813790
Au      7.473574294417280      6.041369124873950      6.998849006422580
Au      0.000375698018346      8.629768221716141      6.999708306250210
Au      2.989045764244490      8.632221138590570      6.999986502775260
Au      5.978237230784490      8.631191405318170      6.998779156350030
Au      0.000208863595005      1.724114101957330      9.439708752084840
Au      2.989844332092590      1.726812238661210      9.441208306414930
Au      5.979179293431060      1.725772668385620      9.439558416143370
Au      1.494103891219970      4.314723791432070      9.442094060359960
Au      4.484814824574650      4.313421390047670      9.441361022103131
Au      7.473733594861390      4.314507508202730      9.441648614422579
Au      0.001030999522496      6.905226368443970      9.440197720610509
Au      2.989338258480870      6.904626351756250      9.442012483260861
Au      5.978815767475600      6.904109429348190      9.439930603159731
Au      1.493627528804280      9.494218272269061      9.442393178162311
Au      4.484399196163500      9.494409279344559      9.441398574158789
Au      7.473473557387200      9.493767142052180      9.442574974700200
Au      0.001878938716993      0.001553245559596     11.925484046688799
Au      2.988853991064920      0.000393458849302     11.923280437170501
Au      5.978023508315770      0.003397711677118     11.923919436430999
Au      1.493732686571770      2.588340134922790     11.923137219788400
Au      4.487256732098040      2.588564287975290     11.922876313720399
Au      7.472646453788670      2.589913582335290     11.921384505721299
Au     -0.002706783631834      5.179281500548590     11.923019609844500
Au      2.991404153469720      5.178538543336960     11.923780646571100
Au      5.979991740994200      5.178732251245890     11.922104962450600
Au      1.494616679117520      7.769857004120180     11.923795886195199
Au      4.485000963541180      7.767281743471250     11.922543242109199
Au      7.474085075623100      7.765334478932400     11.922271883854600
