36

Rh      2.226957159192120      1.363727179764670      5.000000000000000
Rh      2.226957159192120      4.091181539294000      5.000000000000000
Rh      2.226957159192120      6.818635898823330      5.000000000000000
Rh      4.453914318384230      0.000000000000001      5.787348254338340
Rh      4.453914318384230      2.727454359529330      5.787348254338340
Rh      4.453914318384230      5.454908719058660      5.787348254338340
Rh     -0.000000000000000      4.091181539294000      6.574696508676680
Rh     -0.000000000000000      1.363727179764670      6.574696508676680
Rh     -0.000000000000000      6.818635898823320      6.574696508676680
Rh      2.226957159192120      0.000000000000001      7.362044763015020
Rh      2.226957159192120      2.727454359529330      7.362044763015020
Rh      2.226957159192120      5.454908719058660      7.362044763015020
Rh      4.453914318384240      1.363727179764660      8.149393017353360
Rh      4.453914318384230      4.091181539293990      8.149393017353360
Rh      4.453914318384240      6.818635898823320      8.149393017353360
Rh     -0.000000000000001      0.000000000000001      8.936741271691689
Rh     -0.000000000000001      2.727454359529330      8.936741271691689
Rh     -0.000000000000001      5.454908719058660      8.936741271691689
Rh      2.226957159192120      1.363727179764660      9.724089526030030
Rh      2.226957159192120      4.091181539293990      9.724089526030030
Rh      2.226957159192120      6.818635898823320      9.724089526030030
Rh      4.453914318384240      0.000000000000001     10.511437780368400
Rh      4.453914318384240      2.727454359529330     10.511437780368400
Rh      4.453914318384240      5.454908719058660     10.511437780368400
Rh      0.024177263460214      1.363727112888760     11.264043540283600
Rh      0.024176747375073      4.091180940274900     11.264044872295200
Rh      0.024176881279769      6.818636648076390     11.264044655997001
Rh      2.255677020839980      0.000002232910832     12.128384022932799
Rh      2.255677002147820      2.727451657951920     12.128384113078001
Rh      2.255677355945450      5.454909096632500     12.128384165130999
Rh      4.470921740503600      1.363727117057870     12.822456828552101
Rh      4.470921676374840      6.818636451648430     12.822457673983600
Rh      4.470921591962270      4.091181089921650     12.822457824028000
Rh     -0.031360882244922      0.000002177524913     13.540673079011899
Rh     -0.031360755556784      2.727451754655760     13.540673415645999
Rh     -0.031360240841392      5.454909122855300     13.540675144121000
