19

H       5.749030000000000      1.349040000000000      9.244310000000000
H       2.836660000000000      4.606990000000000      9.144840000000000
O       0.750200000000000      0.531070000000000      9.190680000000000
Pt      0.000000000000000      0.000000000000000      0.000000000000000
Pt      2.757210000000000      0.000000000000000      0.000000000000000
Pt      1.378610000000000      2.387820000000000      0.000000000000000
Pt      4.135820000000000      2.387820000000000      0.000000000000000
Pt      1.378610000000000      0.795940000000000      2.251260000000000
Pt      4.135820000000000      0.795940000000000      2.251260000000000
Pt      2.757210000000000      3.183760000000000      2.251260000000000
Pt      5.514430000000000      3.183760000000000      2.251260000000000
Pt      6.061510000000000      1.872360000000000      4.501440000000000
Pt      3.315000000000000      1.902370000000000      4.500600000000000
Pt      7.408590000000000      4.265870000000000      4.496320000000000
Pt      4.653300000000000      4.308790000000000      4.508710000000000
Pt      1.084890000000000      0.573090000000000      6.840370000000000
Pt      3.822410000000000      0.580410000000000      6.800330000000000
Pt      2.438300000000000      2.969810000000000      6.807180000000000
Pt      5.202850000000000      2.965440000000000      6.784070000000000
