38

Ag      4.829720000000000      1.472530000000000     20.787749999999999
Ag      4.835950000000000      4.469120000000000     20.901930000000000
Ag      4.829720000000000      7.465720000000000     20.787749999999999
Ag      2.421680000000000      0.000000000000000     19.998280000000001
Ag      2.432000000000000      2.977700000000000     19.993069999999999
Ag      2.431990000000000      5.960530000000000     19.993069999999999
Ag      0.025060000000000      1.493310000000000     19.215450000000001
Ag      0.028590000000000      4.469110000000000     19.225480000000001
Ag      0.025050000000000      7.444920000000000     19.215450000000001
Ag      4.913190000000000      0.000000000000000     18.295729999999999
Ag      4.919190000000000      3.003860000000000     18.353690000000000
Ag      4.919190000000000      5.934370000000000     18.353680000000001
Ag      2.439410000000000      1.492660000000000     17.452660000000002
Ag      2.438090000000000      4.469110000000000     17.458629999999999
Ag      2.439410000000000      7.445570000000000     17.452660000000002
Ag      0.007500000000000      8.938219999999999     16.602360000000001
Ag      0.007680000000000      2.973240000000000     16.600860000000001
Ag      0.007680000000000      5.964990000000000     16.600860000000001
Ag      4.865350000000000      1.489700000000000     15.761830000000000
Ag      4.865350000000000      4.469110000000000     15.761830000000000
Ag      4.865350000000000      7.448510000000000     15.761830000000000
Ag      2.432680000000000      0.000000000000000     14.901750000000000
Ag      2.432680000000000      2.979410000000000     14.901750000000000
Ag      2.432680000000000      5.958820000000000     14.901750000000000
Ag      0.000000000000000      1.489700000000000     14.041660000000000
Ag      0.000000000000000      4.469110000000000     14.041660000000000
Ag      0.000000000000000      7.448510000000000     14.041660000000000
Ag      4.865350000000000      0.000000000000000     13.181590000000000
Ag      4.865350000000000      2.979410000000000     13.181590000000000
Ag      4.865350000000000      5.958820000000000     13.181590000000000
Ag      2.432680000000000      1.489700000000000     12.321500000000000
Ag      2.432680000000000      4.469110000000000     12.321500000000000
Ag      2.432680000000000      7.448510000000000     12.321500000000000
Ag      0.000000000000000      0.000000000000000     11.461420000000000
Ag      0.000000000000000      2.979410000000000     11.461420000000000
Ag      0.000000000000000      5.958820000000000     11.461420000000000
O       4.852610000000000      4.469370000000000     24.204090000000001
C       4.962310000000000      4.469250000000000     23.054749999999999
