18

Si      1.351573500000000      1.351573500000000      9.999999227739300
Si      0.000000000000000      0.000000000000000     11.911412551438399
Si      1.305681776527860      1.305682361427460     13.783511138195200
Si     -0.000000511714191      0.000000569044648     16.234721128466099
Si      1.351573500000000      4.054720500000000      9.999999227739300
Si      0.000000000000000      2.703147000000000     11.911412551438399
Si      1.305681059205670      4.100612910830220     13.783511500150500
Si      0.000000270461932      2.703145341414350     15.701150205640500
Si      4.054720500000000      1.351573500000000      9.999999227739300
Si      2.703147000000000      0.000000000000000     11.911412551438399
Si      4.100611498991750      1.305682576753280     13.783511195618500
Si      2.703149461490570     -0.000000224914276     15.701150155133000
Si      4.054720500000000      4.054720500000000      9.999999227739300
Si      2.703147000000000      2.703147000000000     11.911412551438399
Si      4.100611509868300      4.100611934455790     13.783511115896900
Si      2.703146379988700      2.703147370759470     15.562000809515300
O       0.000000488727387     -0.000000999106106     19.238262498863900
C      -0.000001172617965      0.000000651813118     18.081565453065402
