18

Rh      1.368594750000000      1.368594750000000      9.999999119354399
Rh      0.000000000000000      0.000000000000000     11.935485900000000
Rh      1.369663585556480      1.369833378350250     13.869506795438300
Rh      0.000007620758089     -0.000002280812644     15.898030861795400
Rh      1.368594750000000      4.105784250000000      9.999999119354399
Rh      0.000000000000000      2.737189500000000     11.935485900000000
Rh      1.369668043806640      4.104545314659480     13.869515731157600
Rh      0.000004271029538      2.737191605654970     15.737120352149500
Rh      4.105784250000000      1.368594750000000      9.999999119354399
Rh      2.737189500000000      0.000000000000000     11.935485900000000
Rh      4.104716357908860      1.369831380206330     13.869496772177101
Rh      2.737183926716950      0.000002813823177     15.736959482843099
Rh      4.105784250000000      4.105784250000000      9.999999119354399
Rh      2.737189500000000      2.737189500000000     11.935485900000000
Rh      4.104711128257410      4.104547208859080     13.869508105744901
Rh      2.737182550766110      2.737193747179780     15.735379276493500
O       0.000002414736734     -0.000002823929306     18.903447336307998
C      -0.000001615752070      0.000000814206789     17.748914365555901
