30

N       1.361887660565290      2.723775321130580     15.033526910120999
Pt      1.361887711191940      1.318834905287780     13.625781910617800
Pt      1.361887682718030      4.128715721707790     13.625781899965300
Rh      4.085663031377010      1.358816108137680     13.391916508187300
Rh      4.085663012399400      4.088734501316400     13.391916507663700
Rh      0.009928617269602     -0.000000014041593     11.571361010484400
Rh     -0.017701093370908      2.723775307574230     11.533417118174400
Rh      2.713846787526970     -0.000000014419552     11.571361017472199
Rh      2.741476504512830      2.723775306655730     11.533417119370000
Rh      1.361887694656690      1.358701222048920      9.648334570703920
Rh      1.361887696468500      4.088849400731880      9.648334571568590
Rh      4.085663012660570      1.363277945575530      9.619455641824629
Rh      4.085663015580820      4.084272679933260      9.619455643870451
Rh      0.000000000000000      0.000000000000000      7.703999922960000
Rh      0.000000000000000      2.723775321130580      7.703999922960000
Rh      2.723775321130580      0.000000000000000      7.703999922960000
Rh      2.723775321130580      2.723775321130580      7.703999922960000
Rh      1.361887660565290      1.361887660565290      5.778000000000000
Rh      1.361887660565290      4.085662981695870      5.778000000000000
Rh      4.085662981695870      1.361887660565290      5.778000000000000
Rh      4.085662981695870      4.085662981695870      5.778000000000000
Rh      0.000000000000000      0.000000000000000      3.852000077040000
Rh      0.000000000000000      2.723775321130580      3.852000077040000
Rh      2.723775321130580      0.000000000000000      3.852000077040000
Rh      2.723775321130580      2.723775321130580      3.852000077040000
Rh      1.361887660565290      1.361887660565290      1.925999922960000
Rh      1.361887660565290      4.085662981695870      1.925999922960000
Rh      4.085662981695870      1.361887660565290      1.925999922960000
Rh      4.085662981695870      4.085662981695870      1.925999922960000
O       1.361887669983420      2.723775333219490     16.227681454190598
