16

Ru      1.365089000000000      1.365089000000000      9.999999864418800
Ru      0.000000000000001      0.000000000000000     11.930528147859000
Ru      1.365106644277780      1.365109939777360     13.907806471054700
Ru      0.000002866915610      0.000003393989864     15.745501411851400
Ru      1.365089000000000      4.095267000000000      9.999999864418800
Ru      0.000000000000001      2.730178000000000     11.930528147859000
Ru      1.365106457347090      4.095244265160890     13.907804473715901
Ru      0.000001282514487      2.730177113435440     15.745552051209801
Ru      4.095267000000000      1.365089000000000      9.999999864418800
Ru      2.730178000000000      0.000000000000000     11.930528147859000
Ru      4.095248414492890      1.365113391866310     13.907790940605899
Ru      2.730178153381900      0.000001379009018     15.745507933839500
Ru      4.095267000000000      4.095267000000000      9.999999864418800
Ru      2.730178000000000      2.730178000000000     11.930528147859000
Ru      4.095249161154750      4.095242447415550     13.907790592358801
Ru      2.730178250200820      2.730174732551840     15.745533001630999
