18

Ir      1.378449750000000      1.378449750000000      9.999999183917700
Ir      0.000000000000001      0.000000000000000     11.949421199696999
Ir      1.376466998426630      1.376467086583180     13.906440137629801
Ir      0.000023475200528     -0.000000438697791     15.930922436174500
Ir      1.378449750000000      4.135349250000000      9.999999183917700
Ir      0.000000000000001      2.756899500000000     11.949421199696999
Ir      1.376467647005310      4.137328215697540     13.906435276153299
Ir      0.000027599090598      2.756899209007030     15.751200287567400
Ir      4.135349250000000      1.378449750000000      9.999999183917700
Ir      2.756899500000000      0.000000000000000     11.949421199696999
Ir      4.137355270959490      1.376466401199750     13.906456200693000
Ir      2.756906367580580     -0.000008612100728     15.751229311359600
Ir      4.135349250000000      4.135349250000000      9.999999183917700
Ir      2.756899500000000      2.756899500000000     11.949421199696999
Ir      4.137359526236020      4.137327378242070     13.906454117539500
Ir      2.756909103372980      2.756897284632480     15.757788976135400
O       0.000007439952588     -0.000003247030018     18.950018733795702
C       0.000016216732096     -0.000004200051929     17.795293240343501
