20

Rh      2.232036140687090      2.733674816067190     -6.313151563733180
Rh      4.464072281374190      1.366837408033600     -5.524007618266530
Rh      4.464072281374190      4.100512224100790     -5.524007618266530
Rh      2.232036140687090      0.000000000000000     -6.313151563733180
Rh     -0.000000000000001     -0.000000000000000     -4.734863672799880
Rh      2.232036140687090      1.366837408033600     -3.945719727333240
Rh      2.232036140687090      4.100512224100790     -3.945719727333240
Rh      0.000000000000000      2.733674816067190     -4.734863672799880
Rh     -0.000000000000000      1.366837408033600     -2.367431836399940
Rh     -0.000000000000000      4.100512224100790     -2.367431836399940
Rh      4.464072281374190      2.733674816067190     -3.156575781866590
Rh      4.464072281374190      0.000000000000000     -3.156575781866590
Rh      2.236888976827550      0.000076088631158     -1.565212115840140
Rh      4.440872177878560      1.375479465227030     -0.853098394534812
Rh      4.440840401436480      4.091817095466960     -0.853065299045053
Rh      2.228987989207700      2.733745400362240     -1.581964138238610
Rh     -0.043348963905967      2.733677598333750     -0.121649470597175
Rh     -0.032672917453633      0.000015237697451     -0.019789442565303
C      -0.004024197286072     -0.000036804067342      1.846732822410340
O       0.005375977776158     -0.000042587355579      3.000752066106710
