18

C       1.375707000000000      0.794264666666667     15.157736600925700
O       1.375707000000000      0.794264666666667     16.342980374952202
Ir     -0.018089416444004     -0.010444789101681     13.732375146292300
Ir      1.375707433347710      2.403681755365950     13.732375146292300
Ir      2.769504283139410     -0.010444789101681     13.732375146292300
Ir      4.127121433347710      2.382793392387530     13.659705982521800
Ir      2.750648749751100      1.588085423724940     11.461654488894901
Ir      4.127121579172650      3.972205879426990     11.461654488894901
Ir      5.503594408594200      1.588085423724940     11.461654488894901
Ir      6.878535579172650      3.971321575625630     11.436586779161400
Ir      1.375706998624290      0.794264665872402      9.246519955156160
Ir      2.751413998624290      3.177058665872400      9.246519955156160
Ir      4.127120998624290      0.794264665872402      9.246519955156160
Ir      5.502827998624290      3.177058665872400      9.246519955156160
Ir      0.000000000000000      0.000000000000000      6.999999844728920
Ir      1.375707000000000      2.382794000000000      6.999999844728920
Ir      2.751414000000000      0.000000000000000      6.999999844728920
Ir      4.127121000000000      2.382794000000000      6.999999844728920
