40

Ir      2.238942999855270      6.855334891027090      5.000000000000000
Ir      2.238942999855270      4.113200934616250      5.000000000000000
Ir      2.238942999855270      1.371066978205420      5.000000000000000
Ir      4.477885999710540      5.484267912821670      5.791585888943900
Ir      4.477885999710540      2.742133956410840      5.791585888943910
Ir      4.477885999710540     -0.000000000000002      5.791585888943910
Ir     -0.000000000000000      6.855334891027090      6.583171777887810
Ir     -0.000000000000000      4.113200934616250      6.583171777887810
Ir     -0.000000000000001      1.371066978205420      6.583171777887810
Ir      2.238942999855270      5.484267912821680      7.374757666831710
Ir      2.238942999855270      2.742133956410840      7.374757666831720
Ir      2.238942999855270     -0.000000000000001      7.374757666831720
Ir      4.477885999710540      6.855334891027090      8.166343555775621
Ir      4.477885999710530      1.371066978205420      8.166343555775621
Ir      4.477885999710530      4.113200934616250      8.166343555775621
Ir     -0.000000000000002      5.484267912821680      8.957929444719531
Ir     -0.000000000000002      2.742133956410840      8.957929444719531
Ir     -0.000000000000002     -0.000000000000001      8.957929444719531
Ir      2.238942999855270      6.855334891027100      9.749515333663430
Ir      2.238942999855270      1.371066978205420      9.749515333663430
Ir      2.238942999855270      4.113200934616260      9.749515333663430
Ir      4.477885999710540      5.484267912821680     10.541101222607301
Ir      4.477885999710540      0.000000000000000     10.541101222607301
Ir      4.477885999710540      2.742133956410840     10.541101222607301
Ir      0.025384017635011      4.132734052798900     11.322078149575299
Ir      0.026304983049061      6.834648795202730     11.323262119631700
Ir      0.030745873924884      1.371464982502230     11.302801812652101
Ir      2.258727546337700      5.484086441620960     12.162738391064600
Ir      2.262617440320490     -0.002869618523381     12.186696330965001
Ir      2.261148210485040      2.743487531923950     12.187216703351300
Ir      4.489151811515840      4.123469475865730     12.863367838642899
Ir      4.492331961253640      6.841648248361310     12.863152933485100
Ir      4.464736534825380      1.371284902045520     12.853940802125100
Ir     -0.090332983278293      2.712682800838790     13.561192758312000
Ir     -0.032316100309062      5.483782245796260     13.641220548864300
Ir     -0.092285227268525      0.026994464729280     13.560033452079001
N       0.969773009933854      5.467360855020560     15.572853861104999
H       1.281820920971100      6.410440188653900     15.806379507022800
H       0.399077102957225      5.112425754357330     16.339578353392799
H       1.795847022597420      4.873756405955740     15.480397175068900
