36

Au      4.759260000000000      1.478310000000000     20.660340000000001
Au      4.766850000000000      4.454020000000000     20.654570000000000
Au      4.759250000000000      7.429710000000000     20.660329999999998
Au      2.391580000000000      8.908070000000000     19.967250000000000
Au      2.402210000000000      2.970730000000000     19.964469999999999
Au      2.402190000000000      5.937300000000000     19.964469999999999
Au      0.059830000000000      1.488180000000000     19.231510000000000
Au      0.062910000000000      4.454010000000000     19.234549999999999
Au      0.059820000000000      7.419850000000000     19.231510000000000
Au      4.974820000000000      8.908080000000000     18.213699999999999
Au      4.976950000000000      2.968920000000000     18.212360000000000
Au      4.976950000000000      5.939120000000000     18.212360000000000
Au      2.458650000000000      1.486080000000000     17.408310000000000
Au      2.457900000000000      4.454030000000000     17.402740000000001
Au      2.458660000000000      7.421980000000000     17.408310000000000
Au      0.050220000000000      8.908099999999999     16.538090000000000
Au      0.048350000000000      2.968460000000000     16.534870000000002
Au      0.048350000000000      5.939620000000000     16.534880000000001
Au      4.848960000000000      1.484680000000000     15.708740000000001
Au      4.848960000000000      4.454050000000000     15.708740000000001
Au      4.848960000000000      7.423430000000000     15.708740000000001
Au      2.424480000000000      0.000000000000000     14.851559999999999
Au      2.424480000000000      2.969370000000000     14.851559999999999
Au      2.424480000000000      5.938750000000000     14.851559999999999
Au      0.000000000000000      1.484680000000000     13.994370000000000
Au      0.000000000000000      4.454050000000000     13.994370000000000
Au      0.000000000000000      7.423430000000000     13.994370000000000
Au      4.848960000000000      0.000000000000000     13.137190000000000
Au      4.848960000000000      2.969370000000000     13.137190000000000
Au      4.848960000000000      5.938750000000000     13.137190000000000
Au      2.424480000000000      1.484680000000000     12.279999999999999
Au      2.424480000000000      4.454050000000000     12.279999999999999
Au      2.424480000000000      7.423430000000000     12.279999999999999
Au      0.000000000000000      0.000000000000000     11.422820000000000
Au      0.000000000000000      2.969370000000000     11.422820000000000
Au      0.000000000000000      5.938750000000000     11.422820000000000
