41

Cu      4.325820000000000      0.455980000000000     11.220780000000000
Cu      6.849220000000000      0.227990000000000     11.802060000000001
Cu      0.000000000000000      0.000000000000000     12.383340000000000
Cu      5.407280000000000      2.051920000000000     12.964620000000000
Cu      7.930680000000000      1.823930000000000     13.545890000000000
Cu     10.454070000000000      1.595940000000000     14.127170000000000
Cu      3.604860000000000      1.367950000000000     14.708449999999999
Cu      6.119870000000000      1.159070000000000     15.287770000000000
Cu      8.649979999999999      0.927190000000000     15.850700000000000
Cu      1.829310000000000      0.657770000000000     16.494720000000001
Cu      4.343950000000000      0.485260000000000     17.034920000000000
Cu      6.863280000000000      0.233780000000000     17.527940000000001
Cu      9.348170000000000      0.031370000000000     18.082310000000000
Cu      7.209710000000000      2.735900000000000     11.220780000000000
Cu      9.733100000000000      2.507900000000000     11.802060000000001
Cu      2.883890000000000      2.279910000000000     12.383340000000000
Cu      8.291169999999999      4.331830000000000     12.964620000000000
Cu     10.814570000000000      4.103840000000000     13.545890000000000
Cu     13.337960000000001      3.875850000000000     14.127170000000000
Cu      6.488740000000000      3.647860000000000     14.708449999999999
Cu      9.002470000000001      3.435980000000000     15.287319999999999
Cu     11.545489999999999      3.226380000000000     15.873580000000000
Cu      4.707560000000000      2.959090000000000     16.486960000000000
Cu      7.223410000000000      2.740270000000000     17.037430000000001
Cu      9.737990000000000      2.503170000000000     17.528810000000000
Cu     12.220390000000000      2.280200000000000     18.078530000000001
Cu     10.093600000000000      5.015810000000000     11.220780000000000
Cu     12.616989999999999      4.787820000000000     11.802060000000001
Cu      5.767780000000000      4.559830000000000     12.383340000000000
Cu     11.175060000000000      6.611750000000000     12.964620000000000
Cu     13.698449999999999      6.383760000000000     13.545890000000000
Cu     16.221850000000000      6.155760000000000     14.127170000000000
Cu      9.372629999999999      5.927770000000000     14.708449999999999
Cu     11.894100000000000      5.705430000000000     15.335929999999999
Cu     14.393700000000001      5.485420000000000     15.869270000000000
Cu      7.599010000000000      5.227740000000000     16.485460000000000
Cu     10.081989999999999      5.014470000000000     17.040600000000001
Cu     12.611800000000001      4.825090000000000     17.690239999999999
Cu     15.171950000000001      4.597060000000000     18.072749999999999
C      12.581610000000000      4.877320000000000     19.554569999999998
O      12.568090000000000      4.897560000000000     20.718750000000000
