12

Sn      1.681748180987890      0.970957731288331      9.999999292331040
Sn      5.045244442963690      0.970957731288331      9.999999292331040
Sn      3.363496261975790      3.883830925153320      9.999999292331040
Sn      6.726992623951580      3.883830925153320      9.999999292331040
Sn      6.726992623951580      1.941915462576660     12.746282497985099
Sn      3.363496261975790      1.941915462576660     12.746282497985099
Sn      8.408740704939479      4.854788756441650     12.746282497985099
Sn      5.045244442963690      4.854788756441650     12.746282497985099
Sn      0.000000000000000      0.000000000000000     15.492565703639100
Sn      3.363496261975790      0.000000000000000     15.492565703639100
Sn      1.681748180987890      2.912873193864990     15.492565703639100
Sn      5.045244442963690      2.912873193864990     15.492565703639100
