6

N       1.366996000000000      0.789235333333333     15.130082126694100
O       1.366996000000000      0.789235333333333     16.321058800652999
Rh      0.000000001366996      0.000000002367706     13.787800606070300
Rh      2.733992009568970      1.578470672191310     11.435025693995200
Rh      1.366995998633000      0.789235332544098      9.232294987107769
Rh      0.000000000000000      0.000000000000000      6.999999940626440
