18

Co      4.917860000000000      1.419660000000000      0.000000000000000
Co      2.458930000000000      1.419660000000000      0.000000000000000
Co      6.147330000000000      3.549160000000000      0.000000000000000
Co      3.688400000000000      3.549160000000000      0.000000000000000
Co      0.000000000000000      0.000000000000000      2.009740000000000
Co      2.458930000000000      0.000000000000000      2.009740000000000
Co      1.229470000000000      2.129500000000000      2.009740000000000
Co      3.688390000000000      2.129500000000000      2.009740000000000
Co      4.919250000000000      1.412290000000000      4.072710000000000
Co      2.459930000000000      1.423500000000000      4.054470000000000
Co      6.159450000000000      3.559900000000000      4.072930000000000
Co      3.678670000000000      3.560010000000000      4.073200000000000
Co      0.000360000000000      0.001240000000000      6.096600000000000
Co      2.459100000000000      0.009440000000000      5.965000000000000
Co      1.237230000000000      2.126190000000000      5.965190000000000
Co      3.681420000000000      2.126290000000000      5.965460000000000
O       7.373850000000000      4.257620000000000      8.984570000000000
C       7.374220000000000      4.257210000000000      7.838830000000000
