50

Rh      2.230223453763350      1.365284930170050     -8.670954249204820
Rh      2.231249769466740      4.096035430038950     -8.671836074699860
Rh      0.001579212815507      1.366190629200380     -7.095416514357410
Rh      0.000542560043586      4.095806165720860     -7.095412769725050
Rh      4.459695441492240     -0.001913280244658     -7.884999406689710
Rh      4.458891191691430      2.729833557822110     -7.882960241524600
Rh      2.228818715534810      2.729434085241110     -6.305153942316830
Rh      4.459227702920180      1.365490722675910     -5.519716890386250
Rh      4.458909096496140      4.096380506003380     -5.519443135777460
Rh      2.230102437628680     -0.000600638689920     -6.306911284835550
Rh     -0.000601706612230      0.001852278184508     -4.729978190539050
Rh      2.228669028681380      1.366245739383330     -3.942858088078570
Rh      2.229935603205340      4.094309913289790     -3.942965430477500
Rh      0.000196861235869      2.731584855522440     -4.729793325033130
Rh     -0.000115648282389      1.365122090775630     -2.366460868647530
Rh     -0.000719844208396      4.095808944642710     -2.363925224430940
Rh      4.459797097510240      2.729083348787080     -3.152985711573480
Rh      4.459068396940250     -0.000676922000306     -3.152698119254040
Rh      2.237502474887030     -0.002838477860654     -1.514535068787660
Rh      4.459384096853110      1.360241387673260     -0.803053459105423
Rh      4.445615884379380      4.095835081993630     -0.806119280747150
Rh      2.241730663614250      2.725399022005990     -1.523351187499200
Rh     -0.010330229878294      2.732829136996110      0.004892842462011
Rh     -0.006797239039151      0.007555454301827     -0.065440387907454
Rh      2.230223453763350      6.826977708054950     -8.670954249204820
Rh      2.231249769466740      9.557728207923841     -8.671836074699870
Rh      0.001579212815508      6.827883407085270     -7.095416514357410
Rh      0.000542560043586      9.557498943605751     -7.095412769725050
Rh      4.459695441492240      5.459779497640240     -7.884999406689710
Rh      4.458891191691430      8.191526335707000     -7.882960241524600
Rh      2.228818715534810      8.191126863126010     -6.305153942316840
Rh      4.459227702920180      6.827183500560810     -5.519716890386250
Rh      4.458909096496140      9.558073283888270     -5.519443135777460
Rh      2.230102437628680      5.461092139194970     -6.306911284835550
Rh     -0.000601706612229      5.463545056069400     -4.729978190539060
Rh      2.228669028681380      6.827938517268220     -3.942858088078570
Rh      2.229935603205340      9.556002691174680     -3.942965430477500
Rh      0.000196861235870      8.193277633407330     -4.729793325033130
Rh     -0.000115648282388      6.826814868660530     -2.366460868647530
Rh     -0.000719844208395      9.557501722527601     -2.363925224430940
Rh      4.459797097510240      8.190776126671979     -3.152985711573480
Rh      4.459068396940260      5.461015855884590     -3.152698119254040
Rh      2.241771890143290      5.466722921736240     -1.524227360887180
Rh      4.459366292194940      6.831730165553360     -0.803167628754298
Rh      4.464641649806760      9.557813787632419     -0.798848252657064
Rh      2.237673291999690      8.194712925983991     -1.513615807488430
Rh     -0.006909160994169      8.184600935098500     -0.065455589575167
Rh     -0.010229164330459      5.460417524324940      0.003328305351994
O       0.001523361158143      4.103815892892670      2.664823748668210
C       0.025597235285183      4.097420634309790      1.494426762915900
