38

Ni      0.000000000000000      0.000000000000000      9.145077720207251
Ni      2.496086937588510      0.000000000000000      9.145077720207251
Ni      4.992173875177030      0.000000000000000      9.145077720207251
Ni      1.248043468794260      2.161674698006150      9.145077720207251
Ni      3.744130406382770      2.161674698006150      9.145077720207251
Ni      6.240217343971280      2.161674698006150      9.145077720207251
Ni      2.496086937588510      4.323349396012310      9.145077720207251
Ni      4.992173875177030      4.323349396012310      9.145077720207251
Ni      7.488260812765540      4.323349396012310      9.145077720207251
Ni      1.248043468794260      0.720558232668718     11.183124170446600
Ni      3.744130406382770      0.720558232668718     11.183124170446600
Ni      6.240217343971280      0.720558232668718     11.183124170446600
Ni      2.496086937588510      2.882232930674870     11.183124170446600
Ni      4.992173875177030      2.882232930674870     11.183124170446600
Ni      7.488260812765540      2.882232930674870     11.183124170446600
Ni      3.744130406382770      5.043907628681030     11.183124170446600
Ni      6.240217343971280      5.043907628681030     11.183124170446600
Ni      8.736304281559789      5.043907628681030     11.183124170446600
Ni      0.004665275184387      1.442894759087890     13.227302794921000
Ni      2.496166324413920      1.440959588617240     13.218017044363300
Ni      4.989239501694590      1.442573076480620     13.225973761475201
Ni      1.248649321970640      3.598126220955650     13.227408104900199
Ni      3.744122538678420      3.599236950123480     13.225760383331000
Ni      6.240491800134240      3.602751834919440     13.220836657541700
Ni      2.496554619368750      5.764623503384040     13.216185300553800
Ni      4.996262118684960      5.767410448892850     13.227347137194601
Ni      7.484659238265490      5.767158132556250     13.227655822847900
Ni     -0.015288615146039     -0.009055261205148     15.241216967933600
Ni      2.497425850073400      0.001448298205147     15.316354039936600
Ni      5.009786720495340     -0.009285786827137     15.240419338013700
Ni      1.250096126422230      2.161778837633530     15.315960874677600
Ni      3.747946194007330      2.163621911573630     15.307414911289900
Ni      6.242398339580960      2.165126235666030     15.245104505742100
Ni      2.497045233781770      4.342869420532820     15.240019226845700
Ni      4.996579235003290      4.323020748532270     15.244860933117399
Ni      7.486375523883460      4.321952835044790     15.245665087134199
C       2.507184299120760      1.447881990851590     16.631952920276600
O       2.524124018721240      1.458241077354140     17.814872202292399
