15

Pd      1.409415569745530      0.813726444042554      9.999999151569099
Pd      4.228246870265570      0.813726444042554      9.999999151569099
Pd      2.818830970005570      3.254905771287860      9.999999151569099
Pd      5.637662270525610      3.254905771287860      9.999999151569099
Pd      5.637662431554600      1.627452883202750     12.301565129456399
Pd      2.818831131034560      1.627452883202750     12.301565129456399
Pd      7.047077831814640      4.068632210448050     12.301565129456399
Pd      4.228246531294600      4.068632210448050     12.301565129456399
Pd     -0.000112495218213     -0.014843927782062     14.609284202602600
Pd      2.818773909606890     -0.004805441976248     14.612364465304699
Pd      1.405121971936700      2.428656770591470     14.598661333653800
Pd      4.232203264416250      2.428643412458190     14.598814611155300
O       2.801317743959000      2.310509852689410     17.782222443276702
H       2.830831056453760      2.206461121343820     18.752587836370200
H       2.824911534399360      1.397237998923980     17.436793215078801
