28

Ag      2.967341319988040      0.000000821053004      5.985074141629760
Ag     -0.000001083009246     -0.000000974115040      5.985069631413820
Ag      4.451008781499930      2.569791179823390      5.985074003435490
Ag      1.483671441773670      2.569792918627630      5.985073765243840
Ag      4.451009826297850      0.856597079062617      8.441375602644470
Ag      1.483669748089570      0.856596479821635      8.441375969396510
Ag      2.967339981851650      3.426390117678580      8.441376424358999
Ag      5.934679914300710      3.426389754975580      8.441373739434750
Ag      2.967339961458780      1.713194525525360     10.845645865962600
Ag      5.934679922917560      1.713194525525360     10.845645865962600
Ag      4.451009942188170      4.282986313813400     10.845645865962600
Ag      7.418349903646960      4.282986313813400     10.845645865962600
Ag      2.967339961458780     -0.000000000000001     13.268468798943900
Ag      0.000000000000001     -0.000000000000001     13.268468798943900
Ag      1.483669980729390      2.569791788288040     13.268468798943900
Ag      4.451009942188170      2.569791788288040     13.268468798943900
Ag      4.451009942188170      0.856597262762679     15.691291731925199
Ag      1.483669980729390      0.856597262762680     15.691291731925199
Ag      2.967339961458780      3.426389051050720     15.691291731925199
Ag      5.934679922917560      3.426389051050720     15.691291731925199
Ag      2.967340047085560      1.713195011313220     18.095564535040900
Ag      5.934679944983080      1.713194352623180     18.095562933081101
Ag      4.451009442896300      4.282985591954460     18.095563300799000
Ag      7.418350262222540      4.282986235790720     18.095562460838799
Ag      2.967339091364860      0.000000168827109     20.551868001773400
Ag      0.000000756018271      0.000000404512345     20.551872337122902
Ag      1.483669972734040      2.569790873935090     20.551868372804101
Ag      4.451009679604960      2.569791637544650     20.551868315902901
