6

N       1.410134666666670      0.814141666666667     15.345975963710300
O       1.410134666666670      0.814141666666667     16.531054208376901
Pd      0.000000071916919      0.000000290648575     13.978372082649100
Pd      2.820269351665100      1.628283407420230     11.607580273985601
Pd      1.410134665256530      0.814141665852525      9.302740370360000
Pd      0.000000000000000      0.000000000000000      7.000000131988220
