35

Cu      2.456700000000000      2.174820000000000     11.303110000000000
Cu      4.913380000000000      1.702040000000000     12.010680000000001
Cu      0.491360000000000      1.229240000000000     12.718550000000000
Cu      2.948030000000000      0.756470000000000     13.426110000000000
Cu      5.404710000000000      0.283670000000000     14.133680000000000
Cu      1.474020000000000      2.363950000000000     14.841250000000000
Cu      3.901970000000000      1.897670000000000     15.531250000000000
Cu      6.379130000000000      1.418910000000000     16.219239999999999
Cu      1.958520000000000      0.939490000000000     16.994250000000001
Cu      4.392340000000000      0.487880000000000     17.721100000000000
Cu      8.342870000000000      7.652070000000000     18.265239999999999
Cu      2.948040000000000      4.727870000000000     11.303110000000000
Cu      5.404720000000000      4.255100000000000     12.010680000000001
Cu      0.982690000000000      3.782300000000000     12.718550000000000
Cu      3.439370000000000      3.309520000000000     13.426110000000000
Cu      5.896040000000000      2.836720000000000     14.133680000000000
Cu      1.965360000000000      4.917000000000000     14.841250000000000
Cu      4.395170000000000      4.433830000000000     15.576160000000000
Cu      6.835830000000000      3.968040000000000     16.255009999999999
Cu      2.445430000000000      3.517350000000000     16.986139999999999
Cu      4.865290000000000      3.028040000000000     17.721820000000001
Cu      7.341490000000000      2.569830000000000     18.254120000000000
Cu      3.439370000000000      7.280930000000000     11.303110000000000
Cu      5.896050000000000      6.808150000000000     12.010680000000001
Cu      1.474030000000000      6.335350000000000     12.718550000000000
Cu      3.930700000000000      5.862580000000000     13.426110000000000
Cu      6.387380000000000      5.389780000000000     14.133680000000000
Cu      2.456690000000000      7.470060000000000     14.841250000000000
Cu      4.889090000000000      7.016880000000000     15.578860000000001
Cu      7.339900000000000      6.543930000000000     16.254639999999998
Cu      2.964240000000000      6.043790000000000     17.019539999999999
Cu      5.390720000000000      5.581700000000000     17.641800000000000
Cu      7.818760000000000      5.123660000000000     18.272910000000000
C       4.204090000000000      1.831910000000000     19.184320000000000
O       3.874100000000000      1.898080000000000     20.317470000000000
