30

N       1.299662263820870      2.599324527641750     14.539026638350601
Pt      1.308205312194620      1.256217858436310     13.100767694002901
Pt      1.308203735541660      3.942436893550430     13.100774786007500
Cu      3.907453825794370      1.272514008039010     12.826218868744800
Cu      3.907452470001930      3.926136350528320     12.826218361822200
Cu      0.030971579462339     -0.000000023396463     11.037864026945901
Cu      0.008938082507039      2.599325392703200     11.030646089001101
Cu      2.582504235639780     -0.000000048302872     11.036511192688399
Cu      2.603144766347570      2.599325087751000     11.029527087656300
Cu      1.302893612592840      1.301722034957180      9.180454752135089
Cu      1.302893714116720      3.896927907672820      9.180454136465700
Cu      3.902634772413720      1.297571296061550      9.203617295271179
Cu      3.902634729844490      3.901079300229930      9.203616858849200
Cu      0.000000000000000      0.000000000000000      7.351999926480000
Cu      0.000000000000000      2.599324527641750      7.351999926480000
Cu      2.599324527641750      0.000000000000000      7.351999926480000
Cu      2.599324527641750      2.599324527641750      7.351999926480000
Cu      1.299662263820870      1.299662263820870      5.514000000000000
Cu      1.299662263820870      3.898986791462620      5.514000000000000
Cu      3.898986791462620      1.299662263820870      5.514000000000000
Cu      3.898986791462620      3.898986791462620      5.514000000000000
Cu      0.000000000000000      0.000000000000000      3.676000073520000
Cu      0.000000000000000      2.599324527641750      3.676000073520000
Cu      2.599324527641750      0.000000000000000      3.676000073520000
Cu      2.599324527641750      2.599324527641750      3.676000073520000
Cu      1.299662263820870      1.299662263820870      1.837999926480000
Cu      1.299662263820870      3.898986791462620      1.837999926480000
Cu      3.898986791462620      1.299662263820870      1.837999926480000
Cu      3.898986791462620      3.898986791462620      1.837999926480000
O       1.279067840787010      2.599324005621070     15.732952861686901
