36

Rh      1.365919908624230      0.788189184584548      7.000647688538100
Rh      4.097792613270080      0.788093295510996      6.999765863043050
Rh      6.828695185171620      0.789094883614872      6.999530525614070
Rh      0.000542560043586      3.152846377850070      6.999534270246430
Rh      2.731088351214010      3.151396515298220      6.998275082167490
Rh      5.461130490355650      3.152296964422540      7.000314247332600
Rh      1.364515170395700      5.516879838498700      7.001465648768920
Rh      4.096043807113180      5.518359670404720      6.998575251813790
Rh      6.826571589631590      5.518403064789750      6.998849006422580
Rh      0.000375698018346      7.882673850167280      6.999708306250210
Rh      2.730244682330220      7.885126767041700      6.999986502775260
Rh      5.460635066955940      7.884097033769300      6.998779156350030
Rh      0.000208863595005      1.574695227647560      9.228398553561441
Rh      2.731043250178320      1.577393364351430      9.229898107891531
Rh      5.461577129602510      1.576353794075850      9.228248217619971
Rh      1.364703350262830      3.941176605657640      9.230783861836549
Rh      4.096613201703240      3.939874204273230      9.230050823579729
Rh      6.826730890075700      3.940960322428290      9.230338415899180
Rh      0.001030999522496      6.307550871204870      9.228887522087110
Rh      2.730537176566600      6.306950854517160      9.230702284737459
Rh      5.461213603647050      6.306433932109090      9.228620404636329
Rh      1.364226987847140      8.672414463565310      9.231082979638909
Rh      4.096197573292090      8.672605470640811      9.230088375635381
Rh      6.826470852601510      8.671963333348421      9.231264776176801
Rh     -0.000324050083923     -0.000252908974749     11.409694383476699
Rh      2.730946371410730     -0.000246474187264     11.408949665996500
Rh      5.461483171246460     -0.000170026178765     11.409017972356899
Rh      1.365013619986020      2.364496532333380     11.408455345171200
Rh      4.096422408063970      2.364232980849740     11.408718939630500
Rh      6.827300054443460      2.364039426332650     11.407831730370599
Rh     -0.000246502973289      4.729824325813500     11.408417011851199
Rh      2.730904045018150      4.729203933075270     11.408549368081101
Rh      5.461637330753140      4.729710005006570     11.408252091336299
Rh      1.365328008631210      7.094562341511410     11.408978295044800
Rh      4.096573989281600      7.094651680362880     11.408287403608201
Rh      6.827051114240590      7.094279147301180     11.408006347003100
