47

Rh      1.588881311694840      1.965730827894390      7.350000000000000
Rh      4.312677846028860      1.965730827894390      7.350000000000000
Rh      7.036474380362880      1.965730827894390      7.350000000000000
Rh      2.950779578861850      4.324607821367660      7.350000000000000
Rh      5.674576113195870      4.324607821367660      7.350000000000000
Rh      8.398372647529881      4.324607821367660      7.350000000000000
Rh      4.312677846028860      6.683484814840930      7.350000000000000
Rh      7.036474380362880      6.683484814840930      7.350000000000000
Rh      9.760270914696889      6.683484814840930      7.350000000000000
Rh      1.588881311694840      0.393146165578879      9.573970557426509
Rh      4.312677846028860      0.393146165578879      9.573970557426509
Rh      7.036474380362880      0.393146165578879      9.573970557426509
Rh      2.950779578861850      2.752023159052150      9.573970557426509
Rh      5.674576113195870      2.752023159052150      9.573970557426509
Rh      8.398372647529881      2.752023159052150      9.573970557426509
Rh      4.312677846028860      5.110900152525420      9.573970557426509
Rh      7.036474380362880      5.110900152525420      9.573970557426509
Rh      9.760270914696889      5.110900152525420      9.573970557426509
Rh      2.950780524282290      1.179440464904010     11.768406847907100
Rh      5.669445123738170      1.178660152240620     11.788184468232901
Rh      8.403503839739599      1.178659781508560     11.788184385854001
Rh      4.309436775520010      3.534264406298100     11.788183685212999
Rh      7.036473862969300      3.538318048784050     11.782919005273399
Rh      9.763513935066261      3.534264143138860     11.788183018862799
Rh      5.676465329457190      5.902029114462080     11.788184337301301
Rh      8.396483791956420      5.902030109766340     11.788182622492601
Rh     11.122169332686401      5.897194921534280     11.787204505948299
Rh      1.580031434596800      1.970840538847810     14.024705701454200
Rh      4.321530771659440      1.970842162909140     14.024706215185001
Rh      7.036474055359080      1.969237693976460     13.976159375048800
Rh      2.950779654193210      4.315853174034870     13.999764745684100
Rh      5.677612574339200      4.322855771977050     13.976161189375500
Rh      8.395336525353130      4.322856363556020     13.976156543004500
Rh      4.320257945971490      6.687861413540060     13.999764298628200
Rh      7.036474608592540      6.673261944025040     14.024705990245099
Rh      9.752690447463809      6.687861448270370     13.999763001861099
Rh      1.582567002112830      0.389493072638157     16.201806767246900
Rh      4.318992783581190      0.389498612567447     16.201808521408498
Rh      7.036474843081870      0.337695829906761     16.188257322499702
Rh      2.950785834046350      2.759310700439160     16.201810474273699
Pt      5.625922062843830      2.723925989022730     16.379074369162002
Pt      8.447042601478589      2.723923909911180     16.379061007364299
Rh      4.264660877586230      5.138617826518110     16.188254864530698
Pt      7.036481115498480      5.167078087390200     16.379074252611499
Rh      9.808290327585990      5.138620331102160     16.188254965472002
N       7.036474380362880      3.538315490209910     17.726071015086600
O       7.036458015741950      3.538320744109110     18.932730247411001
