28

Fe      0.000039941893850     -0.000618623983229      6.095432120304140
Fe      2.023181883022620      1.430862870966130      6.092525890539130
Fe      0.000032898397822      2.862116443913780      6.093732046703000
Fe      2.023507849392590      4.292102127701830      6.096485906031030
Fe      2.023101435608330      0.001804038644472      8.063254180078729
Fe      0.000387540030554      1.433015208405070      8.062334341302931
Fe      2.023544819621850      2.859713393209230      8.062610921954629
Fe     -0.000278364850536      4.289975434562180      8.063612363320370
Fe     -0.000000000000001      0.000000000000000     10.046758703547001
Fe      2.023379351773510      1.430745260551890     10.046758703547001
Fe     -0.000000000000001      2.861490521103780     10.046758703547001
Fe      2.023379351773510      4.292235781655670     10.046758703547001
Fe      2.023379351773510      0.000000000000000     12.070138055320500
Fe     -0.000000000000000      1.430745260551890     12.070138055320500
Fe      2.023379351773510      2.861490521103780     12.070138055320500
Fe     -0.000000000000000      4.292235781655670     12.070138055320500
Fe     -0.000000000000000      0.000000000000000     14.093517407094000
Fe      2.023379351773510      1.430745260551890     14.093517407094000
Fe     -0.000000000000000      2.861490521103780     14.093517407094000
Fe      2.023379351773510      4.292235781655670     14.093517407094000
Fe      2.023195066057180      0.002247575968976     16.079242060291499
Fe      0.000488547212183      1.432897374434760     16.079273471923099
Fe      2.023421463627070      2.859241418348950     16.079099721215400
Fe     -0.000386216864174      4.290104334744370     16.079148440733402
Fe      0.000081250779964     -0.000288772446921     18.044158683703600
Fe      2.023402628713190      1.430585952324490     18.045588096058701
Fe     -0.000027687952384      2.861740888474740     18.045182440958001
Fe      2.023304499171240      4.292396491782330     18.043605920442399
