36

Ag      2.422822932981300      1.483669980729400      5.000000000000000
Ag      2.422822932981300      4.451009942188180      5.000000000000010
Ag      2.422822932981300      7.418349903646960      5.000000000000010
Ag      4.845645865962600      0.000000000000004      5.856597262762680
Ag      4.845645865962600      2.967339961458790      5.856597262762690
Ag      4.845645865962600      5.934679922917570      5.856597262762690
Ag     -0.000000000000005      1.483669980729390      6.713194525525370
Ag     -0.000000000000005      4.451009942188180      6.713194525525370
Ag     -0.000000000000004      7.418349903646960      6.713194525525370
Ag      2.422822932981300      0.000000000000004      7.569791788288040
Ag      2.422822932981300      2.967339961458780      7.569791788288050
Ag      2.422822932981300      5.934679922917570      7.569791788288050
Ag      4.845645865962600      1.483669980729390      8.426389051050730
Ag      4.845645865962600      4.451009942188170      8.426389051050730
Ag      4.845645865962600      7.418349903646960      8.426389051050730
Ag     -0.000000000000004      0.000000000000003      9.282986313813410
Ag     -0.000000000000005      2.967339961458780      9.282986313813410
Ag     -0.000000000000004      5.934679922917570      9.282986313813410
Ag      2.422822932981300      1.483669980729390     10.139583576576101
Ag      2.422822932981300      4.451009942188170     10.139583576576101
Ag      2.422822932981300      7.418349903646960     10.139583576576101
Ag      4.845645865962610     -0.000000000000000     10.996180839338800
Ag      4.845645865962610      2.967339961458780     10.996180839338800
Ag      4.845645865962610      5.934679922917570     10.996180839338800
Ag      0.041523831432514      1.483669834329370     11.850262432450499
Ag      0.041524698002616      4.451009871094710     11.850262814166101
Ag      0.041524471412745      7.418349738750460     11.850262556226900
Ag      2.452240441873730      0.000000942917080     12.784658788707899
Ag      2.452240712849800      2.967339421010380     12.784658776938899
Ag      2.452240687821290      5.934679333117920     12.784658130398700
Ag      4.834950560717530      1.483670068976220     13.602152385441499
Ag      4.834950540619700      4.451009260915930     13.602153428771601
Ag      4.834950904655500      7.418349728855630     13.602150582572699
Ag      0.002271157978363      0.000000764185874     14.371660808952001
Ag      0.002272431956801      2.967339483717270     14.371661548053600
Ag      0.002271781145740      5.934679218065850     14.371661074204800
