16

Rh      0.000000000000000      0.000000000000000      0.000000000000000
Rh      2.673870000000000      0.000000000000000      0.000000000000000
Rh      1.336940000000000      2.315640000000000      0.000000000000000
Rh      4.010810000000000      2.315640000000000      0.000000000000000
Rh      1.336940000000000      0.771880000000000      2.183210000000000
Rh      4.010810000000000      0.771880000000000      2.183210000000000
Rh      2.673870000000000      3.087520000000000      2.183210000000000
Rh      5.347750000000000      3.087520000000000      2.183210000000000
Rh      5.347770000000000      1.543770000000000      4.302590000000000
Rh      2.673860000000000      1.543760000000000      4.302590000000000
Rh      6.684680000000000      3.859390000000000      4.302590000000000
Rh      4.010820000000000      3.859410000000000      4.302560000000000
Rh      0.000010000000000      0.000010000000000      6.455090000000000
Rh      2.673870000000000      0.000000000000000      6.454970000000000
Rh      1.336930000000000      2.315640000000000      6.454890000000000
Rh      4.010820000000000      2.315650000000000      6.455040000000000
