38

Cu      0.000000000000000      0.000000000000000      9.533678756476689
Cu      2.602152954766490      0.000000000000000      9.533678756476689
Cu      5.204305909532990      0.000000000000000      9.533678756476689
Cu      1.301076477383250      2.253530563360520      9.533678756476689
Cu      3.903229432149740      2.253530563360520      9.533678756476689
Cu      6.505382386916240      2.253530563360520      9.533678756476689
Cu      2.602152954766490      4.507061126721050      9.533678756476689
Cu      5.204305909532990      4.507061126721050      9.533678756476689
Cu      7.806458864299490      4.507061126721050      9.533678756476689
Cu      1.301076477383250      0.751176854453508     11.658327747094500
Cu      3.903229432149740      0.751176854453508     11.658327747094500
Cu      6.505382386916240      0.751176854453508     11.658327747094500
Cu      2.602152954766490      3.004707417814030     11.658327747094500
Cu      5.204305909532990      3.004707417814030     11.658327747094500
Cu      7.806458864299490      3.004707417814030     11.658327747094500
Cu      3.903229432149740      5.258237981174560     11.658327747094500
Cu      6.505382386916240      5.258237981174560     11.658327747094500
Cu      9.107535341682730      5.258237981174560     11.658327747094500
Cu      0.013571072509608      1.504565907832200     13.769521055257000
Cu      2.602950577175980      1.502659152996380     13.729265770500801
Cu      5.192998791908560      1.504247942127040     13.768796310041900
Cu      1.306398596569270      3.744192275671000     13.769675485188101
Cu      3.899424196304960      3.744934175441310     13.768683732280500
Cu      6.506069650751810      3.756152971970400     13.745798196324900
Cu      2.603019190429300      6.009761868013250     13.738218712583500
Cu      5.213144078901280      6.019800325436600     13.769457292495900
Cu      7.799137377689470      6.019674641445890     13.769743264955499
Cu     -0.019071493351697     -0.011409227531831     15.837689030866001
Cu      2.603908529518410     -0.009509542749915     15.904022178126500
Cu      5.227055956844400     -0.011238425533502     15.836846806663100
Cu      1.293895503105050      2.259313797980480     15.904121681790700
Cu      3.914716238165010      2.259804815537470     15.902207330471301
Cu      6.508155464706740      2.254712996270010     15.850759220570099
Cu      2.604156893700150      4.531969224909260     15.836879450200399
Cu      5.207116820649110      4.508391952661380     15.850622561506700
Cu      7.807653437948600      4.507504047035400     15.851082137535800
C       2.609480672900480      1.506357317902000     17.345302435604300
O       2.610665293743110      1.506852787073170     18.514404914858499
