66

Ni      1.252790000000000      1.252790000000000      9.638669999999999
Ni      3.758370000000000      1.252790000000000      9.638669999999999
Ni      6.263950000000000      1.252790000000000      9.638669999999999
Ni      8.769530000000000      1.252790000000000      9.638669999999999
Ni      1.252790000000000      3.758370000000000      9.638669999999999
Ni      3.758370000000000      3.758370000000000      9.638669999999999
Ni      6.263950000000000      3.758370000000000      9.638669999999999
Ni      8.769530000000000      3.758370000000000      9.638669999999999
Ni      1.252790000000000      6.263950000000000      9.638669999999999
Ni      3.758370000000000      6.263950000000000      9.638669999999999
Ni      6.263950000000000      6.263950000000000      9.638669999999999
Ni      8.769530000000000      6.263950000000000      9.638669999999999
Ni      1.252790000000000      8.769530000000000      9.638669999999999
Ni      3.758370000000000      8.769530000000000      9.638669999999999
Ni      6.263950000000000      8.769530000000000      9.638669999999999
Ni      8.769530000000000      8.769530000000000      9.638669999999999
Ni      0.000000000000000      0.000000000000000     11.410380000000000
Ni      2.505580000000000      0.000000000000000     11.410380000000000
Ni      5.011160000000000      0.000000000000000     11.410380000000000
Ni      7.516750000000000      0.000000000000000     11.410380000000000
Ni      0.000000000000000      2.505580000000000     11.410380000000000
Ni      2.505580000000000      2.505580000000000     11.410380000000000
Ni      5.011160000000000      2.505580000000000     11.410380000000000
Ni      7.516750000000000      2.505580000000000     11.410380000000000
Ni      0.000000000000000      5.011160000000000     11.410380000000000
Ni      2.505580000000000      5.011160000000000     11.410380000000000
Ni      5.011160000000000      5.011160000000000     11.410380000000000
Ni      7.516750000000000      5.011160000000000     11.410380000000000
Ni      0.000000000000000      7.516750000000000     11.410380000000000
Ni      2.505580000000000      7.516750000000000     11.410380000000000
Ni      5.011160000000000      7.516750000000000     11.410380000000000
Ni      7.516750000000000      7.516750000000000     11.410380000000000
Ni      1.253070000000000      1.253850000000000     13.182620000000000
Ni      3.758130000000000      1.258720000000000     13.181300000000000
Ni      6.263610000000000      1.255220000000000     13.177600000000000
Ni      8.769679999999999      1.258100000000000     13.180500000000000
Ni      1.254550000000000      3.760480000000000     13.185120000000000
Ni      3.773020000000000      3.772320000000000     13.204440000000000
Ni      6.263470000000000      3.762960000000000     13.188060000000000
Ni      8.757750000000000      3.770470000000000     13.199820000000001
Ni      1.254610000000000      6.261910000000000     13.185070000000000
Ni      3.773150000000000      6.250210000000000     13.204520000000000
Ni      6.263420000000000      6.259570000000000     13.188150000000000
Ni      8.757630000000001      6.251950000000000     13.199850000000000
Ni      1.253130000000000      8.768430000000000     13.182570000000000
Ni      3.758210000000000      8.763389999999999     13.181350000000000
Ni      6.263550000000000      8.766810000000000     13.177690000000000
Ni      8.769590000000001      8.764120000000000     13.180490000000001
Ni     10.019500000000001     10.022280000000000     14.889770000000000
Ni      2.508620000000000     10.022270000000001     14.890620000000000
Ni      5.013370000000000     10.022190000000000     14.889790000000000
Ni      7.514470000000000     10.022209999999999     14.889290000000001
Ni      0.004310000000000      2.507030000000000     14.897040000000001
Ni      2.501020000000000      2.506630000000000     14.899020000000000
Ni      5.005780000000000      2.487790000000000     14.898339999999999
Ni      7.521830000000000      2.487840000000000     14.896470000000001
Ni     10.018960000000000      5.011210000000000     14.899880000000000
Ni      2.514660000000000      5.011230000000000     14.904159999999999
Ni      5.048760000000000      5.011300000000000     15.045579999999999
Ni      7.495380000000000      5.011270000000000     15.027419999999999
Ni      0.004260000000000      7.515310000000000     14.896950000000000
Ni      2.501110000000000      7.515710000000000     14.899210000000000
Ni      5.005850000000000      7.534530000000000     14.899039999999999
Ni      7.521730000000000      7.534490000000000     14.896800000000001
O       6.306580000000000      5.011350000000000     17.657630000000001
C       6.286620000000000      5.011400000000000     16.462100000000000
