64

Cu      4.413960000000000      1.538570000000000      6.995270000000000
Cu      5.990380000000000      3.606020000000000      6.995270000000000
Cu      6.936230000000000      1.250090000000000      7.555980000000000
Cu      8.512639999999999      3.317540000000000      7.555980000000000
Cu      9.458489999999999      0.961600000000000      8.116680000000001
Cu     11.034910000000000      3.029050000000000      8.116680000000001
Cu      1.261130000000000      0.673120000000000      8.677390000000001
Cu      2.837550000000000      2.740570000000000      8.677390000000001
Cu      3.783400000000000      0.384640000000000      9.238099999999999
Cu      5.359810000000000      2.452090000000000      9.238099999999999
Cu      6.305660000000000      0.096160000000000      9.798800000000000
Cu      7.882080000000000      2.163610000000000      9.798800000000000
Cu     11.980760000000000      3.942580000000000     10.359510000000000
Cu     10.404339999999999      1.875130000000000     10.359510000000000
Cu      3.783400000000000      3.654100000000000     10.920220000000000
Cu      2.206980000000000      1.586650000000000     10.920220000000000
Cu      6.309670000000000      3.362900000000000     11.476520000000001
Cu      4.733350000000000      1.295430000000000     11.476480000000000
Cu      8.821520000000000      3.082290000000000     12.037690000000000
Cu      7.245260000000000      1.015030000000000     12.037640000000000
Cu     11.356579999999999      2.783930000000000     12.588329999999999
Cu      9.780279999999999      0.716420000000000     12.588350000000000
Cu      3.187040000000000      2.474220000000000     13.151570000000000
Cu      1.610570000000000      0.406820000000000     13.151710000000000
Cu      5.707130000000000      2.188550000000000     13.766679999999999
Cu      4.130670000000000      0.121410000000000     13.766790000000000
Cu      8.220860000000000      1.906720000000000     14.264239999999999
Cu      9.797180000000001      3.974250000000000     14.264040000000000
Cu     10.711830000000001      1.642010000000000     14.828139999999999
Cu     12.288399999999999      3.709540000000000     14.827880000000000
Cu      2.482650000000000      1.375900000000000     15.303470000000001
Cu      4.059280000000000      3.443150000000000     15.303110000000000
Cu      7.566790000000000      5.673470000000000      6.995270000000000
Cu      9.143210000000000      7.740920000000000      6.995270000000000
Cu     10.089060000000000      5.384980000000000      7.555980000000000
Cu     11.665469999999999      7.452430000000000      7.555980000000000
Cu     12.611319999999999      5.096500000000000      8.116680000000001
Cu     14.187740000000000      7.163950000000000      8.116680000000001
Cu      4.413960000000000      4.808020000000000      8.677390000000001
Cu      5.990380000000000      6.875470000000000      8.677390000000001
Cu      6.936230000000000      4.519540000000000      9.238099999999999
Cu      8.512639999999999      6.586990000000000      9.238099999999999
Cu      9.458489999999999      4.231060000000000      9.798800000000000
Cu     11.034910000000000      6.298510000000000      9.798800000000000
Cu     15.133590000000000      8.077480000000000     10.359510000000000
Cu     13.557169999999999      6.010030000000000     10.359510000000000
Cu      6.936230000000000      7.789000000000000     10.920220000000000
Cu      5.359810000000000      5.721550000000000     10.920220000000000
Cu      9.462560000000000      7.497790000000000     11.476720000000000
Cu      7.886200000000000      5.430330000000000     11.476660000000001
Cu     11.974380000000000      7.217500000000000     12.037760000000000
Cu     10.397970000000001      5.149920000000000     12.037739999999999
Cu     14.509480000000000      6.918790000000000     12.588500000000000
Cu     12.933059999999999      4.851330000000000     12.588200000000001
Cu      6.339910000000000      6.609110000000000     13.151859999999999
Cu      4.763640000000000      4.541570000000000     13.151529999999999
Cu      8.859950000000000      6.323780000000000     13.766909999999999
Cu      7.283510000000000      4.256300000000000     13.766700000000000
Cu     11.373640000000000      6.041590000000000     14.264130000000000
Cu     12.950089999999999      8.109140000000000     14.264150000000001
Cu     13.864910000000000      5.776700000000000     14.827990000000000
Cu     15.441210000000000      7.844340000000000     14.828150000000001
Cu      5.635770000000000      5.510450000000000     15.303450000000000
Cu      7.212170000000000      7.578300000000000     15.303610000000001
