18

Ga      1.503895250000000      1.503895250000000     10.000001084164699
Ga      6.015581000000000      0.000000000000000     12.126830240737799
Ga      1.521802962004370      1.521804651552740     14.213748557002800
Ga     -0.000004969573731      0.000004454538445     16.354493002281501
Ga      1.503895250000000      4.511685750000000     10.000001084164699
Ga      6.015581000000000      3.007790500000000     12.126830240737799
Ga      1.521803597160580      4.493778822917950     14.213749606889200
Ga      0.000001212026540      3.007794386124460     16.376228180175499
Ga      4.511685750000000      1.503895250000000     10.000001084164699
Ga      3.007790500000000      0.000000000000000     12.126830240737799
Ga      4.493774420072710      1.521805136803950     14.213748640707200
Ga      3.007785300168160     -0.000000511683405     16.376229550734600
Ga      4.511685750000000      4.511685750000000     10.000001084164699
Ga      3.007790500000000      3.007790500000000     12.126830240737799
Ga      4.493775630344620      4.493779363304680     14.213749020609701
Ga      3.007792140783820      3.007789484217030     16.457446125848701
O      -0.000001665869492      0.000001999524659     21.206193163838300
C      -0.000003845350210     -0.000005359864366     20.073837139795899
