40

Au      2.427927047880640      7.433978000011860      5.000000000000000
Au      2.427927047880640      4.460386800007120      5.000000000000000
Au      2.427927047880640      1.486795600002370      5.000000000000000
Au      4.855854095761300      5.947182400009490      5.858401839891320
Au      4.855854095761300      2.973591200004740      5.858401839891320
Au      4.855854095761300     -0.000000000000007      5.858401839891320
Au     -0.000000000000004      7.433978000011870      6.716803679782640
Au     -0.000000000000005      4.460386800007120      6.716803679782640
Au     -0.000000000000004      1.486795600002370      6.716803679782640
Au      2.427927047880650      2.973591200004740      7.575205519673960
Au      2.427927047880650      5.947182400009490      7.575205519673960
Au      2.427927047880650     -0.000000000000004      7.575205519673960
Au      4.855854095761300      7.433978000011870      8.433607359565279
Au      4.855854095761300      1.486795600002370      8.433607359565279
Au      4.855854095761300      4.460386800007120      8.433607359565279
Au     -0.000000000000007      5.947182400009490      9.292009199456601
Au     -0.000000000000006      2.973591200004740      9.292009199456610
Au     -0.000000000000006     -0.000000000000003      9.292009199456610
Au      2.427927047880650      1.486795600002370     10.150411039347899
Au      2.427927047880650      4.460386800007120     10.150411039347899
Au      2.427927047880650      7.433978000011870     10.150411039347899
Au      4.855854095761300      5.947182400009500     11.008812879239199
Au      4.855854095761300      2.973591200004750     11.008812879239199
Au      4.855854095761300     -0.000000000000003     11.008812879239301
Au      0.066784891184670      7.451781514265170     11.843038330803800
Au      0.073929019831324      4.460329459537050     11.787077317491301
Au      0.080893681280342      1.465171522075460     11.846989690810700
Au      2.469970886344900      2.958328516185280     12.862062991926400
Au      2.456509213895750      5.955974577855550     12.861204562880699
Au      2.507445591518960     -0.002512332442142     12.830112834457100
Au      4.791804704578090      4.460673149203940     13.626678001929900
Au      4.843010682810380      7.432147607048110     13.610617458075501
Au      4.844024296399580      1.482506032224600     13.630070648767401
Au     -0.070581009772334      5.908466266604670     14.291775010619400
Au      0.007930032889451      0.024744039025736     14.344837866058199
Au     -0.065536308345009      3.012934964832460     14.289946252058300
N       0.726514118523942      8.780267345818640     16.658638711029099
H       0.827445408980844      9.704192663600390     17.073930789822899
H       0.064928904485739      8.239798965113851     17.212225107990701
H       1.629584249436870      8.310597861117730     16.695855888248499
