16

Cu      1.261810000000000      1.261810000000000      0.000000000000000
Cu      3.785440000000000      1.261810000000000      0.000000000000000
Cu      1.261810000000000      3.785440000000000      0.000000000000000
Cu      3.785440000000000      3.785440000000000      0.000000000000000
Cu      0.000000000000000      0.000000000000000      1.784470000000000
Cu      2.523630000000000      0.000000000000000      1.784470000000000
Cu      0.000000000000000      2.523630000000000      1.784470000000000
Cu      2.523630000000000      2.523630000000000      1.784470000000000
Cu      1.261810000000000      1.261810000000000      3.576410000000000
Cu      3.785440000000000      1.261810000000000      3.576410000000000
Cu      1.261810000000000      3.785440000000000      3.576410000000000
Cu      3.785440000000000      3.785440000000000      3.576410000000000
Cu      0.000000000000000      0.000000000000000      5.303500000000000
Cu      2.523630000000000      0.000000000000000      5.303500000000000
Cu      0.000000000000000      2.523630000000000      5.303500000000000
Cu      2.523630000000000      2.523630000000000      5.303500000000000
