35

Cu      2.456700000000000      2.174820000000000     11.303110000000000
Cu      4.913380000000000      1.702040000000000     12.010680000000001
Cu      0.491360000000000      1.229240000000000     12.718550000000000
Cu      2.948030000000000      0.756470000000000     13.426110000000000
Cu      5.404710000000000      0.283670000000000     14.133680000000000
Cu      1.474020000000000      2.363950000000000     14.841250000000000
Cu      3.908570000000000      1.900430000000000     15.565709999999999
Cu      6.405860000000000      1.413610000000000     16.155590000000000
Cu      1.983120000000000      0.948280000000000     17.022829999999999
Cu      4.409770000000000      0.497720000000000     17.695280000000000
Cu      6.830920000000000      0.028370000000000     18.298520000000000
Cu      2.948040000000000      4.727870000000000     11.303110000000000
Cu      5.404720000000000      4.255100000000000     12.010680000000001
Cu      0.982690000000000      3.782300000000000     12.718550000000000
Cu      3.439370000000000      3.309520000000000     13.426110000000000
Cu      5.896040000000000      2.836720000000000     14.133680000000000
Cu      1.965360000000000      4.917000000000000     14.841250000000000
Cu      4.386220000000000      4.442080000000000     15.580730000000001
Cu      6.865000000000000      3.967070000000000     16.244940000000000
Cu      2.455780000000000      3.482250000000000     17.037700000000001
Cu      4.884910000000000      3.013990000000000     17.697150000000001
Cu      7.302000000000000      2.554940000000000     18.296469999999999
Cu      3.439370000000000      7.280930000000000     11.303110000000000
Cu      5.896050000000000      6.808150000000000     12.010680000000001
Cu      1.474030000000000      6.335350000000000     12.718550000000000
Cu      3.930700000000000      5.862580000000000     13.426110000000000
Cu      6.387380000000000      5.389780000000000     14.133680000000000
Cu      2.456690000000000      7.470060000000000     14.841250000000000
Cu      4.890210000000000      7.009050000000000     15.576400000000000
Cu      7.361490000000000      6.534350000000000     16.245410000000000
Cu      2.958240000000000      6.062890000000000     17.036149999999999
Cu      5.411000000000000      5.580990000000000     17.616930000000000
Cu      7.839190000000000      5.117000000000000     18.266200000000001
C       5.589430000000000      1.583700000000000     19.150720000000000
O       5.332630000000000      1.616680000000000     20.337060000000001
