16

Ni      1.252489750000000      1.252489750000000      9.999998960105600
Ni      0.000000000000000      0.000000000000000     11.771288497164001
Ni      1.252405216294860      1.252495781040760     13.569211996879400
Ni      0.000121932149684     -0.000144766461130     15.289291254440400
Ni      1.252489750000000      3.757469250000000      9.999998960105600
Ni      0.000000000000000      2.504979500000000     11.771288497164001
Ni      1.252407726503780      3.757458906858140     13.569180243411299
Ni      0.000123984602222      2.505126581513830     15.289199102649199
Ni      3.757469250000000      1.252489750000000      9.999998960105600
Ni      2.504979500000000      0.000000000000000     11.771288497164001
Ni      3.757550690272070      1.252501014393940     13.569281389801800
Ni      2.504858476464570     -0.000149737684749     15.289311458778499
Ni      3.757469250000000      3.757469250000000      9.999998960105600
Ni      2.504979500000000      2.504979500000000     11.771288497164001
Ni      3.757548384796260      3.757460298250650     13.569225969647601
Ni      2.504855049467190      2.505128859912040     15.289220143973900
