38

Rh      1.365919908624230      0.788189184584548      7.000647688538100
Rh      4.097792613270080      0.788093295510996      6.999765863043050
Rh      6.828695185171620      0.789094883614872      6.999530525614070
Rh      0.000542560043586      3.152846377850070      6.999534270246430
Rh      2.731088351214010      3.151396515298220      6.998275082167490
Rh      5.461130490355650      3.152296964422540      7.000314247332600
Rh      1.364515170395700      5.516879838498700      7.001465648768920
Rh      4.096043807113180      5.518359670404720      6.998575251813790
Rh      6.826571589631590      5.518403064789750      6.998849006422580
Rh      0.000375698018346      7.882673850167280      6.999708306250210
Rh      2.730244682330220      7.885126767041700      6.999986502775260
Rh      5.460635066955940      7.884097033769300      6.998779156350030
Rh      0.000208863595005      1.574695227647560      9.228398553561441
Rh      2.731043250178320      1.577393364351430      9.229898107891531
Rh      5.461577129602510      1.576353794075850      9.228248217619971
Rh      1.364703350262830      3.941176605657640      9.230783861836549
Rh      4.096613201703240      3.939874204273230      9.230050823579729
Rh      6.826730890075700      3.940960322428290      9.230338415899180
Rh      0.001030999522496      6.307550871204870      9.228887522087110
Rh      2.730537176566600      6.306950854517160      9.230702284737459
Rh      5.461213603647050      6.306433932109090      9.228620404636329
Rh      1.364226987847140      8.672414463565310      9.231082979638909
Rh      4.096197573292090      8.672605470640811      9.230088375635381
Rh      6.826470852601510      8.671963333348421      9.231264776176801
Rh     -0.001065100561323     -0.002387264655889     11.409544263394800
Rh      2.730186297014230      0.001905380076799     11.410499621627199
Rh      5.461294779333660     -0.002181609595285     11.409063202518899
Rh      1.354369079930970      2.347058019893940     11.403961923347101
Rh      4.106024471141450      2.346976022904470     11.404219276514301
Rh      6.826843768179290      2.358403118701270     11.408371386032000
Rh     -0.019140152400148      4.727317043705630     11.403777771655401
Rh      2.730031197852840      4.728636807098890     11.599964103021801
Rh      5.479671227034510      4.727108986026680     11.403657434748000
Rh      1.356405942968170      7.111704550242610     11.402384432960000
Rh      4.104330509087100      7.111615248640560     11.401742442768599
Rh      6.826648678217540      7.096747699995180     11.408115540258200
O       2.730859644992420      4.763460846677630     14.607440290508899
C       2.730316681587390      4.746595199176540     13.453680969373501
