66

Au      1.484680000000000      1.484680000000000     11.422820000000000
Au      4.454050000000000      1.484680000000000     11.422820000000000
Au      7.423430000000000      1.484680000000000     11.422820000000000
Au     10.392799999999999      1.484680000000000     11.422820000000000
Au      1.484680000000000      4.454050000000000     11.422820000000000
Au      4.454050000000000      4.454050000000000     11.422820000000000
Au      7.423430000000000      4.454050000000000     11.422820000000000
Au     10.392799999999999      4.454050000000000     11.422820000000000
Au      1.484680000000000      7.423430000000000     11.422820000000000
Au      4.454050000000000      7.423430000000000     11.422820000000000
Au      7.423430000000000      7.423430000000000     11.422820000000000
Au     10.392799999999999      7.423430000000000     11.422820000000000
Au      1.484680000000000     10.392799999999999     11.422820000000000
Au      4.454050000000000     10.392799999999999     11.422820000000000
Au      7.423430000000000     10.392799999999999     11.422820000000000
Au     10.392799999999999     10.392799999999999     11.422820000000000
Au      0.000000000000000      0.000000000000000     13.522480000000000
Au      2.969370000000000      0.000000000000000     13.522480000000000
Au      5.938750000000000      0.000000000000000     13.522480000000000
Au      8.908120000000000      0.000000000000000     13.522480000000000
Au      0.000000000000000      2.969370000000000     13.522480000000000
Au      2.969370000000000      2.969370000000000     13.522480000000000
Au      5.938750000000000      2.969370000000000     13.522480000000000
Au      8.908120000000000      2.969370000000000     13.522480000000000
Au      0.000000000000000      5.938750000000000     13.522480000000000
Au      2.969370000000000      5.938750000000000     13.522480000000000
Au      5.938750000000000      5.938750000000000     13.522480000000000
Au      8.908120000000000      5.938750000000000     13.522480000000000
Au      0.000000000000000      8.908120000000000     13.522480000000000
Au      2.969370000000000      8.908120000000000     13.522480000000000
Au      5.938750000000000      8.908120000000000     13.522480000000000
Au      8.908120000000000      8.908120000000000     13.522480000000000
Au      1.477560000000000      1.477560000000000     15.606590000000001
Au      4.444650000000000      1.490630000000000     15.584320000000000
Au      7.432840000000000      1.490620000000000     15.584320000000000
Au     10.399929999999999      1.477560000000000     15.606590000000001
Au      1.490630000000000      4.444650000000000     15.584320000000000
Au      4.491470000000000      4.491470000000000     15.675350000000000
Au      7.386040000000000      4.491470000000000     15.675340000000000
Au     10.386880000000000      4.444650000000000     15.584320000000000
Au      1.490620000000000      7.432840000000000     15.584320000000000
Au      4.491470000000000      7.386040000000000     15.675340000000000
Au      7.386040000000000      7.386040000000000     15.675340000000000
Au     10.386880000000000      7.432850000000000     15.584320000000000
Au      1.477560000000000     10.399929999999999     15.606590000000001
Au      4.444650000000000     10.386880000000000     15.584320000000000
Au      7.432850000000000     10.386880000000000     15.584320000000000
Au     10.399929999999999     10.399929999999999     15.606590000000001
Au      0.000000000000000      0.000000000000000     17.681470000000001
Au      2.976570000000000      0.000000000000000     17.666070000000001
Au      5.938750000000000      0.000010000000000     17.673340000000000
Au      8.900919999999999      0.000000000000000     17.666070000000001
Au      0.000000000000000      2.976570000000000     17.666070000000001
Au      2.961320000000000      2.961320000000000     17.652529999999999
Au      5.938750000000000      2.870740000000000     17.658999999999999
Au      8.916169999999999      2.961320000000000     17.652529999999999
Au      0.000010000000000      5.938750000000000     17.673340000000000
Au      2.870740000000000      5.938750000000000     17.658999999999999
Au      5.938730000000000      5.938730000000000     17.889189999999999
Au      9.006760000000000      5.938750000000000     17.658989999999999
Au      0.000000000000000      8.900919999999999     17.666070000000001
Au      2.961320000000000      8.916169999999999     17.652529999999999
Au      5.938750000000000      9.006760000000000     17.658989999999999
Au      8.916169999999999      8.916169999999999     17.652529999999999
O       5.939050000000000      5.939050000000000     21.050219999999999
C       5.938890000000000      5.938890000000000     19.897870000000001
