38

Ni      4.045680000000000      1.266580000000000     17.493310000000001
Ni      4.049680000000000      3.805250000000000     17.566549999999999
Ni      4.051580000000000      6.253600000000000     17.549160000000001
Ni      2.038450000000000      0.011170000000000     16.831849999999999
Ni      2.038380000000000      2.515360000000000     16.835970000000000
Ni      2.015400000000000      5.020140000000000     16.822140000000001
Ni      6.132150000000000      1.259930000000000     16.211739999999999
Ni      0.002300000000000      3.760430000000000     16.201720000000002
Ni      0.004690000000000      6.274880000000000     16.195709999999998
Ni      4.108350000000000      7.516680000000000     15.423270000000000
Ni      4.106710000000000      2.523850000000000     15.428800000000001
Ni      4.107760000000000      5.016630000000000     15.396409999999999
Ni      2.036410000000000      1.258720000000000     14.696820000000001
Ni      2.035980000000000      3.762630000000000     14.691520000000001
Ni      2.038080000000000      6.268670000000000     14.690759999999999
Ni      6.132510000000000      0.004060000000000     13.987539999999999
Ni      6.130680000000000      2.507360000000000     13.989200000000000
Ni      6.135420000000000      5.012990000000000     13.983169999999999
Ni      4.091600000000000      1.252790000000000     13.255170000000000
Ni      4.091600000000000      3.758370000000000     13.255170000000000
Ni      4.091600000000000      6.263950000000000     13.255170000000000
Ni      2.045800000000000      0.000000000000000     12.531870000000000
Ni      2.045800000000000      2.505580000000000     12.531870000000000
Ni      2.045800000000000      5.011160000000000     12.531870000000000
Ni      0.000000000000000      1.252790000000000     11.808570000000000
Ni      0.000000000000000      3.758370000000000     11.808570000000000
Ni      0.000000000000000      6.263950000000000     11.808570000000000
Ni      4.091600000000000      0.000000000000000     11.085270000000000
Ni      4.091600000000000      2.505580000000000     11.085270000000000
Ni      4.091600000000000      5.011160000000000     11.085270000000000
Ni      2.045800000000000      1.252790000000000     10.361969999999999
Ni      2.045800000000000      3.758370000000000     10.361969999999999
Ni      2.045800000000000      6.263950000000000     10.361969999999999
Ni      0.000000000000000      0.000000000000000      9.638669999999999
Ni      0.000000000000000      2.505580000000000      9.638669999999999
Ni      0.000000000000000      5.011160000000000      9.638669999999999
O       4.124340000000000      5.065540000000000     20.166429999999998
C       4.090440000000000      5.044780000000000     18.972400000000000
