51

Ag      2.438069550671610      1.492564150783630     -9.479285864323259
Ag      2.439095866375010      4.477873091879680     -9.480167689818311
Ag      0.001579212815507      1.493469849813950     -7.756778744908870
Ag      0.000542560043586      4.477643827561590     -7.756775000276500
Ag      4.875387635308770     -0.001913280244658     -8.619846329524661
Ag      4.874583385507960      2.984391999049270     -8.617807164359551
Ag      2.436664812443080      2.983992526468270     -6.893031480584800
Ag      4.874919896736710      1.492769943289490     -6.034109736370720
Ag      4.874601290312670      4.478218167844110     -6.033835981761930
Ag      2.437948534536950     -0.000600638689920     -6.894788823103510
Ag     -0.000601706612230      0.001852278184507     -5.170886344240030
Ag      2.436515125589640      1.493524959996900     -4.310281549496050
Ag      2.437781700113600      4.476147575130520     -4.310388891894970
Ag      0.000196861235868      2.986143296749600     -5.170701478734100
Ag     -0.000115648282390      1.492401311389210     -2.586914945498010
Ag     -0.000719844208396      4.477646606483440     -2.584379301281430
Ag      4.875489291326770      2.983641790014240     -3.446924480707470
Ag      4.874760590756780     -0.000676922000307     -3.446636888388020
Ag      2.438262555183390      0.013510510670248     -1.681046523199950
Ag      4.851889938461990      1.516941974406800     -0.867962595323231
Ag      4.854907749767690      4.499757883689730     -0.887625698465744
Ag      2.438299096834850      2.999254861621900     -1.701204516368880
Ag      0.004197737187434      2.921207521974570     -0.013976106320208
Ag     -0.042079975949108     -0.014820626374012     -0.080755579199044
Ag      2.438069550671610      7.463373811122840     -9.479285864323259
Ag      2.439095866375010     10.448682752218900     -9.480167689818311
Ag      0.001579212815508      7.464279510153160     -7.756778744908870
Ag      0.000542560043586     10.448453487900800     -7.756775000276510
Ag      4.875387635308770      5.968896380094550     -8.619846329524661
Ag      4.874583385507960      8.955201659388480     -8.617807164359551
Ag      2.436664812443080      8.954802186807481     -6.893031480584800
Ag      4.874919896736710      7.463579603628700     -6.034109736370720
Ag      4.874601290312670     10.449027828183301     -6.033835981761930
Ag      2.437948534536950      5.970209021649290     -6.894788823103510
Ag     -0.000601706612230      5.972661938523720     -5.170886344240030
Ag      2.436515125589640      7.464334620336110     -4.310281549496050
Ag      2.437781700113600     10.446957235469700     -4.310388891894970
Ag      0.000196861235869      8.956952957088809     -5.170701478734100
Ag     -0.000115648282389      7.463210971728420     -2.586914945498010
Ag     -0.000719844208395     10.448456266822699     -2.584379301281430
Ag      4.875489291326770      8.954451450353449     -3.446924480707470
Ag      4.874760590756780      5.970132738338900     -3.446636888388020
Ag      2.442832742712340      5.987520416393290     -1.698816666919880
Ag      4.845263600387610      7.480845584436950     -0.862727518937575
Ag      4.832454420671170     10.471287963672500     -0.849398974290078
Ag      2.439374183657710      8.968096819999730     -1.672420229991650
Ag     -0.049078943853716      9.003251170526211     -0.076914021859000
Ag     -0.004047036546330      6.096194815570540     -0.084812628147342
O       0.184790238869283      4.988077334761520      2.184324107200660
C       0.166587169274145      3.784628623392610      2.016697374546290
H       0.240814375128311      3.143530464338270      2.927385894602840
