18

Au      1.496852750000000      1.496852750000000     10.000000399723200
Au      0.000000000000000      0.000000000000001     12.116868588220800
Au      1.477880143669970      1.477880091736240     14.217365318893000
Au     -0.000000053397373     -0.000000135417409     16.421396682590100
Au      1.496852750000000      4.490558250000000     10.000000399723200
Au      0.000000000000000      2.993705500000000     12.116868588220800
Au      1.477880123793890      4.509530870290210     14.217365279511601
Au     -0.000000083303013      2.993705309240770     16.271297522648702
Au      4.490558250000000      1.496852750000000     10.000000399723200
Au      2.993705500000000      0.000000000000001     12.116868588220800
Au      4.509530885538990      1.477880094199850     14.217365404001900
Au      2.993705587269230      0.000000075630132     16.271297686510302
Au      4.490558250000000      4.490558250000000     10.000000399723200
Au      2.993705500000000      2.993705500000000     12.116868588220800
Au      4.509530903054480      4.509530809602200     14.217365364021999
Au      2.993705559406340      2.993705448235930     16.267357796515800
O       0.000000100448762     -0.000000003934183     19.633728702876400
C       0.000000104097853     -0.000000044550527     18.494574302136499
