30

N       1.408203154733010      2.816406309466020     15.322503142860500
Pt      1.408202144325440      1.349768258843470     14.006522944438499
Pt      1.408202140107880      4.283044360611400     14.006522943133101
Pd      4.224610961461770      1.401856873077100     13.932612559155400
Pd      4.224610949327260      4.230955750474720     13.932612558520400
Pd      0.016635201794504     -0.000000001336766     11.978480591555799
Pd     -0.002906308655636      2.816406311433520     11.954164687071801
Pd      2.799771932217890      0.000000001032384     11.978478532129500
Pd      2.819313274641200      2.816406308932050     11.954167473975300
Pd      1.408203297258440      1.406942470855810      9.967052329567469
Pd      1.408203297610770      4.225870147693070      9.967052330894280
Pd      4.224609907036850      1.405527542792190      9.958571934555559
Pd      4.224609905647960      4.227285075387650      9.958571935757950
Pd      0.000000000000000      0.000000000000000      7.965999920340000
Pd      0.000000000000000      2.816406309466020      7.965999920340000
Pd      2.816406309466020      0.000000000000000      7.965999920340000
Pd      2.816406309466020      2.816406309466020      7.965999920340000
Pd      1.408203154733010      1.408203154733010      5.974500000000000
Pd      1.408203154733010      4.224609464199030      5.974500000000000
Pd      4.224609464199030      1.408203154733010      5.974500000000000
Pd      4.224609464199030      4.224609464199030      5.974500000000000
Pd      0.000000000000000      0.000000000000000      3.983000079660000
Pd      0.000000000000000      2.816406309466020      3.983000079660000
Pd      2.816406309466020      0.000000000000000      3.983000079660000
Pd      2.816406309466020      2.816406309466020      3.983000079660000
Pd      1.408203154733010      1.408203154733010      1.991499920340000
Pd      1.408203154733010      4.224609464199030      1.991499920340000
Pd      4.224609464199030      1.408203154733010      1.991499920340000
Pd      4.224609464199030      4.224609464199030      1.991499920340000
O       1.408202838553720      2.816406308285610     16.518213755171601
