40

Os      2.228207294382840      6.822463640481780      5.000000000000000
Os      2.228207294382840      1.364492728096350      5.000000000000000
Os      2.228207294382840      4.093478184289070      5.000000000000000
Os      4.456414588765690      5.457970912385420      5.787790243873720
Os      4.456414588765690      2.728985456192710      5.787790243873720
Os      4.456414588765690     -0.000000000000008      5.787790243873720
Os     -0.000000000000002      6.822463640481780      6.575580487747440
Os     -0.000000000000002      4.093478184289070      6.575580487747440
Os     -0.000000000000002      1.364492728096350      6.575580487747440
Os      2.228207294382840      5.457970912385430      7.363370731621160
Os      2.228207294382840      2.728985456192710      7.363370731621160
Os      2.228207294382840     -0.000000000000006      7.363370731621160
Os      4.456414588765690      6.822463640481790      8.151160975494880
Os      4.456414588765690      1.364492728096350      8.151160975494880
Os      4.456414588765690      4.093478184289070      8.151160975494880
Os      0.000000000000000      2.728985456192710      8.938951219368599
Os     -0.000000000000000      5.457970912385430      8.938951219368599
Os     -0.000000000000000     -0.000000000000004      8.938951219368599
Os      2.228207294382840      6.822463640481790      9.726741463242311
Os      2.228207294382840      4.093478184289070      9.726741463242320
Os      2.228207294382840      1.364492728096350      9.726741463242320
Os      4.456414588765690      5.457970912385430     10.514531707115999
Os      4.456414588765690      2.728985456192710     10.514531707115999
Os      4.456414588765690     -0.000000000000002     10.514531707115999
Os      0.021592033997293      4.099003806646510     11.344771223925600
Os      0.018989852064934      6.839150107610100     11.368590815134599
Os      0.019874238904288      1.358423989410490     11.367937479565400
Os      2.225581111521570      5.455384250286080     12.066332213496700
Os      2.225811912313310      2.739248965975650     12.063928088091100
Os      2.236363668772540      0.004217948164705     12.040352220713601
Os      4.452404351111560      4.099413743866620     12.784714384892601
Os      4.494872393409140      6.827513918229070     12.800867702482099
Os      4.492862966999500      1.368931862875420     12.799599187949999
Os     -0.122258955644492      2.774008396579340     13.540131134291400
Os     -0.117126909590205      5.425678853128160     13.542449730480000
Os     -0.087161279984897      0.010070187778045     13.590328114860300
N       7.812824550514760      0.035665047819910     15.441299077710999
H       8.174755414694189      0.971344124282012     15.635060910311500
H       7.295438337263780     -0.284137344888666     16.260836294468401
H       8.614383370545250     -0.583421236221350     15.298712608795100
