18

N       1.366996000000000      0.789235333333333     15.036526624316600
O       1.366996000000000      0.789235333333333     16.239757278056899
Rh     -0.013067816534076     -0.007544707490483     13.720458418219900
Rh      1.366996001367000      2.382795422084080     13.720458418219900
Rh      2.747059819268070     -0.007544707490483     13.720458418219900
Rh      4.100988001367000      2.367706002367710     13.618489223825399
Rh      2.735844643198120      1.579540290953320     11.427117295000100
Rh      4.100988009568970      3.944037434667300     11.427117295000100
Rh      5.466131375939830      1.579540290953320     11.427117295000100
Rh      6.834980009568970      3.946176672191310     11.440976558336700
Rh      1.366995998633000      0.789235332544098      9.232294987107769
Rh      2.733991998633000      3.156941332544100      9.232294987107769
Rh      4.100987998633000      0.789235332544098      9.232294987107769
Rh      5.467983998633000      3.156941332544100      9.232294987107769
Rh      0.000000000000000      0.000000000000000      6.999999940626440
Rh      1.366996000000000      2.367706000000000      6.999999940626440
Rh      2.733992000000000      0.000000000000000      6.999999940626440
Rh      4.100988000000000      2.367706000000000      6.999999940626440
