38

Ir      0.000000000000000      0.000000000000000     10.077720207253900
Ir      2.750645378815670      0.000000000000000     10.077720207253900
Ir      5.501290757631340      0.000000000000000     10.077720207253900
Ir      1.375322689407830      2.382128774856640     10.077720207253900
Ir      4.125968068223510      2.382128774856640     10.077720207253900
Ir      6.876613447039170      2.382128774856640     10.077720207253900
Ir      2.750645378815670      4.764257549713280     10.077720207253900
Ir      5.501290757631340      4.764257549713280     10.077720207253900
Ir      8.251936136447011      4.764257549713280     10.077720207253900
Ir      1.375322689407830      0.794042924952214     12.323612754401500
Ir      4.125968068223500      0.794042924952214     12.323612754401500
Ir      6.876613447039170      0.794042924952214     12.323612754401500
Ir      2.750645378815670      3.176171699808850     12.323612754401500
Ir      5.501290757631340      3.176171699808850     12.323612754401500
Ir      8.251936136447011      3.176171699808850     12.323612754401500
Ir      4.125968068223510      5.558300474665490     12.323612754401500
Ir      6.876613447039170      5.558300474665490     12.323612754401500
Ir      9.627258825854851      5.558300474665490     12.323612754401500
Ir      0.015824301016248      1.596837073392000     14.547406860769399
Ir      2.735987081373560      1.596994299267570     14.546857369176800
Ir      5.501318264362350      1.589399615085140     14.534806064718900
Ir      1.376093521569270      3.953031375517680     14.547177873124600
Ir      4.120460772653430      3.967748489596420     14.533114198138501
Ir      6.882494964615460      3.967298442857930     14.532922693807700
Ir      2.752282539386130      6.351901835027010     14.534405853000600
Ir      5.501081233380420      6.359006485029410     14.533121894167000
Ir      8.251243960966230      6.352399378177030     14.534852192687101
Ir     -0.010383126795847     -0.021862888477216     16.738883611031600
Ir      2.761528442364250     -0.020580063846482     16.739699156577501
Ir      5.502704918294000      0.000008785815790     16.744907656409900
Ir      1.375446805031390      2.382964938834080     16.957116153329299
Ir      4.150083665139920      2.384126879538720     16.739612478593401
Ir      6.852936258713480      2.383135650057760     16.738470827282100
Ir      2.765201555242150      4.785674342984890     16.738820315286301
Ir      5.501345076794680      4.764994787456260     16.745446068168199
Ir      8.239855878911751      4.785559096973840     16.738461320433899
C       1.362507100553390      2.398399113905110     18.810651243439800
O       1.347117549864290      2.413533865010830     19.963182785682701
