36

Pd      0.000000000000000      0.000000000000000     10.336787564766800
Pd      2.821356056934320      0.000000000000000     10.336787564766800
Pd      5.642712113868650      0.000000000000000     10.336787564766800
Pd      1.410678028467160      2.443366018426220     10.336787564766800
Pd      4.232034085401490      2.443366018426220     10.336787564766800
Pd      7.053390142335810      2.443366018426220     10.336787564766800
Pd      2.821356056934320      4.886732036852440     10.336787564766800
Pd      5.642712113868650      4.886732036852440     10.336787564766800
Pd      8.464068170802969      4.886732036852440     10.336787564766800
Pd      1.410678028467160      0.814455339475407     12.640415138833401
Pd      4.232034085401490      0.814455339475407     12.640415138833401
Pd      7.053390142335810      0.814455339475407     12.640415138833401
Pd      2.821356056934320      3.257821357901630     12.640415138833401
Pd      5.642712113868650      3.257821357901630     12.640415138833401
Pd      8.464068170802969      3.257821357901630     12.640415138833401
Pd      4.232034085401490      5.701187376327850     12.640415138833401
Pd      7.053390142335810      5.701187376327850     12.640415138833401
Pd      9.874746199270140      5.701187376327850     12.640415138833401
Pd     -0.001462304787782      1.622522134855030     14.920347507319200
Pd      2.821242127899140      1.627169075963870     14.922692675876601
Pd      5.639791761134860      1.627031673047470     14.922568376174800
Pd      1.412058416763570      4.068882849111640     14.923180860129600
Pd      4.230404109223820      4.070043887816700     14.931917364426800
Pd      7.049605259267050      4.068687079097940     14.922870615630000
Pd      2.822340007761440      6.511026182180950     14.925678542245100
Pd      5.638844182556160      6.511106018353130     14.925751129255699
Pd      8.462842011430331      6.511523616807730     14.919302739566501
Pd     -0.003089981384698     -0.011906447919219     17.233349225264099
Pd      2.817058602426500     -0.008983920201555     17.219569857483801
Pd      5.641120733433490     -0.009084776047552     17.219650603743901
Pd      1.407425002010640      2.433818575082680     17.219287819921298
Pd      4.229005214244350      2.434187268161390     17.233852320783299
Pd      7.050531302344830      2.433755688589800     17.219094052432499
Pd      2.818498448277450      4.877764096359140     17.238230254302501
Pd      5.639348964528570      4.877763954173020     17.237251932204199
Pd      8.461170063051791      4.876314264108670     17.220471352385601
