39

Cu      4.325820000000000      0.455980000000000     11.220780000000000
Cu      6.849220000000000      0.227990000000000     11.802060000000001
Cu      0.000000000000000      0.000000000000000     12.383340000000000
Cu      5.407280000000000      2.051920000000000     12.964620000000000
Cu      7.930680000000000      1.823930000000000     13.545890000000000
Cu     10.454070000000000      1.595940000000000     14.127170000000000
Cu      3.604860000000000      1.367950000000000     14.708449999999999
Cu      6.116940000000000      1.162740000000000     15.297359999999999
Cu      8.647110000000000      0.934200000000000     15.867870000000000
Cu      1.821670000000000      0.666910000000000     16.518519999999999
Cu      4.327670000000000      0.460010000000000     17.046250000000001
Cu      6.846530000000000      0.233860000000000     17.549209999999999
Cu      9.334930000000000      0.041990000000000     18.101189999999999
Cu      7.209710000000000      2.735900000000000     11.220780000000000
Cu      9.733100000000000      2.507900000000000     11.802060000000001
Cu      2.883890000000000      2.279910000000000     12.383340000000000
Cu      8.291169999999999      4.331830000000000     12.964620000000000
Cu     10.814570000000000      4.103840000000000     13.545890000000000
Cu     13.337960000000001      3.875850000000000     14.127170000000000
Cu      6.488740000000000      3.647860000000000     14.708449999999999
Cu      9.001820000000000      3.441670000000000     15.298060000000000
Cu     11.530970000000000      3.210490000000000     15.868390000000000
Cu      4.715550000000000      2.943790000000000     16.510000000000002
Cu      7.222430000000000      2.743160000000000     17.054250000000000
Cu      9.742130000000000      2.518700000000000     17.561610000000002
Cu     12.242929999999999      2.321850000000000     18.098640000000000
Cu     10.093600000000000      5.015810000000000     11.220780000000000
Cu     12.616989999999999      4.787820000000000     11.802060000000001
Cu      5.767780000000000      4.559830000000000     12.383340000000000
Cu     11.175060000000000      6.611750000000000     12.964620000000000
Cu     13.698449999999999      6.383760000000000     13.545890000000000
Cu     16.221850000000000      6.155760000000000     14.127170000000000
Cu      9.372629999999999      5.927770000000000     14.708449999999999
Cu     11.878780000000001      5.721700000000000     15.298539999999999
Cu     14.414000000000000      5.490970000000000     15.861250000000000
Cu      7.594040000000000      5.225560000000000     16.510190000000001
Cu     10.094910000000000      5.024190000000000     17.053870000000000
Cu     12.623290000000001      4.794550000000000     17.549230000000001
Cu     15.118029999999999      4.599800000000000     18.094619999999999
