18

Pb      1.791218750000000      1.791218750000000      9.999998790323801
Pb      0.000000000000000      0.000000000000000     12.533166183424500
Pb      1.790071844851330      1.790177893344580     15.340186149293199
Pb     -0.000123871155225     -0.000021174168888     17.722466623353402
Pb      1.791218750000000      5.373656250000000      9.999998790323801
Pb      0.000000000000000      3.582437500000000     12.533166183424500
Pb      1.790070731377870      5.374662609242800     15.340186854770700
Pb     -0.000133179588498      3.582415217412380     17.733557898496102
Pb      5.373656250000000      1.791218750000000      9.999998790323801
Pb      3.582437500000000      0.000000000000000     12.533166183424500
Pb      5.374563803935810      1.790170681168180     15.340181428717200
Pb      3.582309374836190     -0.000019731347612     17.733558824605002
Pb      5.373656250000000      5.373656250000000      9.999998790323801
Pb      3.582437500000000      3.582437500000000     12.533166183424500
Pb      5.374564215689530      5.374665955793700     15.340180546645099
Pb      3.582323289626870      3.582418427079010     17.728721627400500
O       0.002296093787493      0.000380463585637     23.111489723498799
C      -0.000125588964887     -0.000017844927090     21.979212837104001
