17

O       1.415315333333330      0.817132666666667     15.190945203233600
Pt     -0.053101188561788     -0.030658012217586     14.021317990651999
Pt      1.415315002830630      2.512713973356800     14.021317990651999
Pt      2.883732194223050     -0.030657990555990     14.021317990651999
Pt      4.245946002830630      2.451397990194410     13.891967447043699
Pt      2.826492412644860      1.631876134584060     11.603705771917101
Pt      4.245945651098190      4.090441775720350     11.603705771917101
Pt      5.665399889551530      1.631876136272170     11.603705771917101
Pt      7.076576651098190      4.085663348858850     11.720782345612600
Pt      1.415315331918020      0.817132665849534      9.311200307296870
Pt      2.830630331918020      3.268530665849530      9.311200307296870
Pt      4.245946331918020      0.817132665849534      9.311200307296870
Pt      5.661261331918020      3.268530665849530      9.311200307296870
Pt      0.000000000000000      0.000000000000000      6.999999942824230
Pt      1.415315000000000      2.451398000000000      6.999999942824230
Pt      2.830631000000000      0.000000000000000      6.999999942824230
Pt      4.245946000000000      2.451398000000000      6.999999942824230
