15

Y       1.788069210373360      1.032342262342360      9.999999302378541
Y       5.364207457301130      1.032342262342360      9.999999302378541
Y       3.576138583837230      4.129369043175370      9.999999302378541
Y       7.152276830765010      4.129369043175370      9.999999302378541
Y       7.152276656946070      2.064684518490660     12.919904085698400
Y       3.576138410018300      2.064684518490660     12.919904085698400
Y       8.940346030409950      5.161711299323670     12.919904085698400
Y       5.364207783482170      5.161711299323670     12.919904085698400
Y      -0.000002217359783     -0.001908635664492     15.969099072718500
Y       3.576135082443710      0.004933978663456     15.737621574992501
Y       1.796885411730980      3.087305250932300     15.724700017159099
Y       5.355386652636590      3.087305845561440     15.724691929299199
O      -0.000004877324603      0.006540499365477     18.409644303330001
H       7.152280381071270      0.796851679687230     18.986774687571000
H       3.576142953029650      5.403603591186120     18.977446335942400
