65

O       1.298314666666670      0.749582333333333     14.467122129045899
Cu     -0.060727224496709     -0.035069632044083     13.368141805901100
Cu      1.298385456599290      2.318746200969460     13.368169411075099
Cu      2.598744210080540      4.510620110847870     13.313200568058200
Cu      3.884698737418570      6.737829275579420     13.313248740486699
Cu      2.657291957407770     -0.034951058909832     13.368169756039901
Cu      3.932371306742550      2.270347029405740     13.305023016915600
Cu      5.191762769441090      4.498300197913800     13.326728192822801
Cu      6.491571231242550      6.703097413646780     13.304967390930599
Cu      5.205689924034550     -0.004744653911348     13.313200888983200
Cu      6.491530608672850      2.247035276112730     13.326728056534201
Cu      7.791403365112670      4.498360218126300     13.326739275964901
Cu      9.098495313778869      6.737841509903580     13.313248647324301
Cu      7.777486408570130     -0.004680533249002     13.313248842636600
Cu      9.050844528686930      2.270303662607180     13.304967617662999
Cu     10.384396299570300      4.510594268510850     13.313248550805101
Cu     11.684723464072100      6.746169682679290     13.327694301821900
Cu      2.596622118599140      1.499162328719370     11.220442300261601
Cu      3.894937118599140      3.747909328719370     11.220442300261601
Cu      5.193252118599140      5.996656328719370     11.220442300261601
Cu      6.491567118599140      8.245403328719370     11.220442300261601
Cu      5.193251118599140      1.499162328719370     11.220442300261601
Cu      6.491566118599140      3.747909328719370     11.220442300261601
Cu      7.789881118599140      5.996656328719370     11.220442300261601
Cu      9.088196118599139      8.245403328719370     11.220442300261601
Cu      7.789880118599140      1.499162328719370     11.220442300261601
Cu      9.088195118599140      3.747909328719370     11.220442300261601
Cu     10.386510118599100      5.996656328719370     11.220442300261601
Cu     11.684825118599100      8.245403328719370     11.220442300261601
Cu     10.386509118599101      1.499162328719370     11.220442300261601
Cu     11.684824118599099      3.747909328719370     11.220442300261601
Cu     12.983139118599100      5.996656328719370     11.220442300261601
Cu     14.281454118599100      8.245403328719370     11.220442300261601
Cu      1.298314665368350      0.749582332583751      9.120139011405350
Cu      2.596629665368350      2.998329332583750      9.120139011405350
Cu      3.894944665368350      5.247076332583750      9.120139011405350
Cu      5.193259665368350      7.495823332583750      9.120139011405350
Cu      3.894943665368350      0.749582332583751      9.120139011405350
Cu      5.193258665368350      2.998329332583750      9.120139011405350
Cu      6.491573665368350      5.247076332583750      9.120139011405350
Cu      7.789888665368350      7.495823332583750      9.120139011405350
Cu      6.491572665368350      0.749582332583751      9.120139011405350
Cu      7.789887665368350      2.998329332583750      9.120139011405350
Cu      9.088202665368350      5.247076332583750      9.120139011405350
Cu     10.386517665368400      7.495823332583750      9.120139011405350
Cu      9.088201665368350      0.749582332583751      9.120139011405350
Cu     10.386516665368401      2.998329332583750      9.120139011405350
Cu     11.684831665368399      5.247076332583750      9.120139011405350
Cu     12.983146665368400      7.495823332583750      9.120139011405350
Cu      0.000000000000000      0.000000000000000      7.000000054576450
Cu      1.298315000000000      2.248747000000000      7.000000054576450
Cu      2.596630000000000      4.497494000000000      7.000000054576450
Cu      3.894945000000000      6.746241000000000      7.000000054576450
Cu      2.596629000000000      0.000000000000000      7.000000054576450
Cu      3.894944000000000      2.248747000000000      7.000000054576450
Cu      5.193259000000000      4.497494000000000      7.000000054576450
Cu      6.491574000000000      6.746241000000000      7.000000054576450
Cu      5.193258000000000      0.000000000000000      7.000000054576450
Cu      6.491573000000000      2.248747000000000      7.000000054576450
Cu      7.789888000000000      4.497494000000000      7.000000054576450
Cu      9.088203000000000      6.746241000000000      7.000000054576450
Cu      7.789887000000000      0.000000000000000      7.000000054576450
Cu      9.088202000000001      2.248747000000000      7.000000054576450
Cu     10.386517000000000      4.497494000000000      7.000000054576450
Cu     11.684832000000000      6.746241000000000      7.000000054576450
