41

Pt      2.156062528471940      6.586468921015050     10.225896640041899
Pt      2.156063188752940      3.810816732052230     10.225886780001000
Cu      2.113340191855080      1.299659931499120     10.079489875130401
Cu      0.018408942999469      0.010862740872341      9.389908048344539
Cu      0.018414377747990      2.588467504746470      9.389908972348319
Cu      0.013660754332162      5.198647610031840      9.364913837613861
Cu      4.283768558532430      1.299657809507090      8.708251509024830
Cu      4.299948509992550      3.882514736979490      8.679992406564860
Cu      4.299970258745060      6.514777211839840      8.679987539943280
Cu      2.166036931365760     -0.004136896369171      7.885230807987880
Cu      2.166037562372570      2.603464441007500      7.885231567345820
Cu      2.172448175602550      5.198644475607540      7.863486633214780
Cu     -0.000008950737920      1.299655655342360      7.153728339204260
Cu      0.008705531942181      3.898662771515870      7.149457548813760
Cu      0.008697060096841      6.498632699695220      7.149457054252270
Cu      4.255859612946010      0.003959581703208      6.400903447370560
Cu      4.255859257805740      2.595358726343210      6.400899812729560
Cu      4.266322115377680      5.198649648040570      6.406547846102000
Cu      2.124862038078000      1.299656384135490      5.653823758231930
Cu      2.130436845392940      3.898385610771530      5.644756870493270
Cu      2.130436386871370      6.498912413132150      5.644759436822640
Cu      0.000000000000000      0.000000000000000      4.907631640961980
Cu      0.000000000000000      2.599324501648500      4.907631640961980
Cu      0.000000000000000      5.198649081276740      4.907631640961980
Cu      4.245309670314350      1.299662289814120      4.157159831420840
Cu      4.245309670314350      3.898986791462620      4.157159831420840
Cu      4.245309670314350      6.498311293111130      4.157159831420840
Cu      2.122654803317350      0.000000000000000      3.406688021879700
Cu      2.122654803317350      2.599324501648500      3.406688021879700
Cu      2.122654803317350      5.198649081276740      3.406688021879700
Cu      0.000000000000000      1.299662289814120      2.656216190195090
Cu      0.000000000000000      3.898986791462620      2.656216190195090
Cu      0.000000000000000      6.498311293111130      2.656216190195090
Cu      4.245309670314350      0.000000000000000      1.905744380653960
Cu      4.245309670314350      2.599324501648500      1.905744380653960
Cu      4.245309670314350      5.198649081276740      1.905744380653960
Cu      2.122654803317350      1.299662289814120      1.155272571112820
Cu      2.122654803317350      3.898986791462620      1.155272571112820
Cu      2.122654803317350      6.498311293111130      1.155272571112820
N       2.352239930598020      5.198641493214910     11.649738914981301
O       2.552358420738780      5.198637551032010     12.827686869819900
