50

Ag      2.438069550671610      1.492564150783630     -9.479285864323259
Ag      2.439095866375010      4.477873091879680     -9.480167689818311
Ag      0.001579212815507      1.493469849813950     -7.756778744908870
Ag      0.000542560043586      4.477643827561590     -7.756775000276500
Ag      4.875387635308770     -0.001913280244658     -8.619846329524661
Ag      4.874583385507960      2.984391999049270     -8.617807164359551
Ag      2.436664812443080      2.983992526468270     -6.893031480584800
Ag      4.874919896736710      1.492769943289490     -6.034109736370720
Ag      4.874601290312670      4.478218167844110     -6.033835981761930
Ag      2.437948534536950     -0.000600638689920     -6.894788823103510
Ag     -0.000601706612230      0.001852278184507     -5.170886344240030
Ag      2.436515125589640      1.493524959996900     -4.310281549496050
Ag      2.437781700113600      4.476147575130520     -4.310388891894970
Ag      0.000196861235868      2.986143296749600     -5.170701478734100
Ag     -0.000115648282390      1.492401311389210     -2.586914945498010
Ag     -0.000719844208396      4.477646606483440     -2.584379301281430
Ag      4.875489291326770      2.983641790014240     -3.446924480707470
Ag      4.874760590756780     -0.000676922000307     -3.446636888388020
Ag      2.431527736301810      0.001798098983037     -1.679595623083370
Ag      4.846159401996970      1.492447792977650     -0.869184615739617
Ag      4.845775658317890      4.476494768594110     -0.868893955052333
Ag      2.437749814567890      2.984767546823150     -1.694930147006360
Ag     -0.020470916557316      2.984477727076130     -0.051335129965049
Ag     -0.052521881566461     -0.029175440424077     -0.092880833979545
Ag      2.438069550671610      7.463373811122840     -9.479285864323259
Ag      2.439095866375010     10.448682752218900     -9.480167689818311
Ag      0.001579212815508      7.464279510153160     -7.756778744908870
Ag      0.000542560043586     10.448453487900800     -7.756775000276510
Ag      4.875387635308770      5.968896380094550     -8.619846329524661
Ag      4.874583385507960      8.955201659388480     -8.617807164359551
Ag      2.436664812443080      8.954802186807481     -6.893031480584800
Ag      4.874919896736710      7.463579603628700     -6.034109736370720
Ag      4.874601290312670     10.449027828183301     -6.033835981761930
Ag      2.437948534536950      5.970209021649290     -6.894788823103510
Ag     -0.000601706612230      5.972661938523720     -5.170886344240030
Ag      2.436515125589640      7.464334620336110     -4.310281549496050
Ag      2.437781700113600     10.446957235469700     -4.310388891894970
Ag      0.000196861235869      8.956952957088809     -5.170701478734100
Ag     -0.000115648282389      7.463210971728420     -2.586914945498010
Ag     -0.000719844208395     10.448456266822699     -2.584379301281430
Ag      4.875489291326770      8.954451450353449     -3.446924480707470
Ag      4.874760590756780      5.970132738338900     -3.446636888388020
Ag      2.431728921644340      5.968214702551130     -1.679670584953900
Ag      4.830194910350840      7.465245404687160     -0.861584466755329
Ag      4.829956229277140     10.445932106953700     -0.861968994366673
Ag      2.431420850704750      8.955927482979879     -1.683750660495880
Ag     -0.054471454620653      8.955586612699850     -0.073033785253500
Ag     -0.052236301113397      5.999551563561460     -0.093172881250960
O      -0.008169978574340      2.980370092868090      3.308687736096880
C       0.187083012658673      2.983476075476560      2.188508217811670
