12

Fe      1.294641895000000      0.747461846000000     10.000000000000000
Fe      3.883925684000000      0.747461846000000     10.000000000000000
Fe      2.589283789000000      2.989847386000000     10.000000000000000
Fe      5.178567579000000      2.989847386000000     10.000000000000000
Fe      5.178567579000000      1.494923693000000     12.114141361000000
Fe      2.589283790000000      1.494923693000000     12.114141361000000
Fe      6.473209474000000      3.737309232000000     12.114141361000000
Fe      3.883925684000000      3.737309232000000     12.114141361000000
Fe      0.000124789000000     -0.000063101000000     14.155918730000000
Fe      2.589218126000000      0.006368885000000     14.171104459000000
Fe      1.300242675000000      2.239191058000000     14.171335475999999
Fe      3.878340416000000      2.239291759000000     14.171137929000000
