64

Ag      1.489700000000000      1.489700000000000     11.461420000000000
Ag      4.469110000000000      1.489700000000000     11.461420000000000
Ag      7.448510000000000      1.489700000000000     11.461420000000000
Ag     10.427920000000000      1.489700000000000     11.461420000000000
Ag      1.489700000000000      4.469110000000000     11.461420000000000
Ag      4.469110000000000      4.469110000000000     11.461420000000000
Ag      7.448510000000000      4.469110000000000     11.461420000000000
Ag     10.427920000000000      4.469110000000000     11.461420000000000
Ag      1.489700000000000      7.448510000000000     11.461420000000000
Ag      4.469110000000000      7.448510000000000     11.461420000000000
Ag      7.448510000000000      7.448510000000000     11.461420000000000
Ag     10.427920000000000      7.448510000000000     11.461420000000000
Ag      1.489700000000000     10.427920000000000     11.461420000000000
Ag      4.469110000000000     10.427920000000000     11.461420000000000
Ag      7.448510000000000     10.427920000000000     11.461420000000000
Ag     10.427920000000000     10.427920000000000     11.461420000000000
Ag      0.000000000000000      0.000000000000000     13.568180000000000
Ag      2.979410000000000      0.000000000000000     13.568180000000000
Ag      5.958820000000000      0.000000000000000     13.568180000000000
Ag      8.938219999999999      0.000000000000000     13.568180000000000
Ag      0.000000000000000      2.979410000000000     13.568180000000000
Ag      2.979410000000000      2.979410000000000     13.568180000000000
Ag      5.958820000000000      2.979410000000000     13.568180000000000
Ag      8.938219999999999      2.979410000000000     13.568180000000000
Ag      0.000000000000000      5.958820000000000     13.568180000000000
Ag      2.979410000000000      5.958820000000000     13.568180000000000
Ag      5.958820000000000      5.958820000000000     13.568180000000000
Ag      8.938219999999999      5.958820000000000     13.568180000000000
Ag      0.000000000000000      8.938219999999999     13.568180000000000
Ag      2.979410000000000      8.938219999999999     13.568180000000000
Ag      5.958820000000000      8.938219999999999     13.568180000000000
Ag      8.938219999999999      8.938219999999999     13.568180000000000
Ag      1.493130000000000      1.491900000000000     15.664230000000000
Ag      4.473700000000000      1.494450000000000     15.670019999999999
Ag      7.444630000000000      1.494350000000000     15.669710000000000
Ag     10.426259999999999      1.491560000000000     15.663489999999999
Ag      1.493850000000000      4.467170000000000     15.664500000000000
Ag      4.474030000000000      4.465780000000000     15.671930000000000
Ag      7.444300000000000      4.465910000000000     15.671609999999999
Ag     10.425540000000000      4.467530000000000     15.663750000000000
Ag      1.491150000000000      7.447490000000000     15.662150000000000
Ag      4.471690000000000      7.445600000000000     15.666330000000000
Ag      7.445840000000000      7.445610000000000     15.666359999999999
Ag     10.426340000000000      7.447680000000000     15.662240000000001
Ag      1.490520000000000     10.428210000000000     15.661849999999999
Ag      4.471450000000000     10.429470000000000     15.664550000000000
Ag      7.446060000000000     10.429470000000000     15.664590000000000
Ag     10.426959999999999     10.428039999999999     15.661949999999999
Ag     11.917590000000001      0.001020000000000     17.720510000000001
Ag      2.979960000000000     11.917400000000001     17.721959999999999
Ag      5.958700000000000      0.002830000000000     17.732630000000000
Ag      8.937630000000000      0.000140000000000     17.721540000000001
Ag      0.001990000000000      2.979860000000000     17.723610000000001
Ag      2.983370000000000      2.978880000000000     17.734829999999999
Ag      5.960910000000000      2.979740000000000     17.754480000000001
Ag      8.938890000000001      2.978930000000000     17.732420000000001
Ag     11.917600000000000      5.957650000000000     17.720240000000000
Ag      2.979150000000000      5.958360000000000     17.725809999999999
Ag      5.958730000000000      5.957550000000000     17.737530000000000
Ag      8.938480000000000      5.958040000000000     17.725410000000000
Ag      0.000030000000000      8.937690000000000     17.720410000000001
Ag      2.980290000000000      8.938020000000000     17.722390000000001
Ag      5.958780000000000      8.939280000000000     17.728040000000000
Ag      8.937180000000000      8.938040000000001     17.722570000000001
