5

O       1.415315333333330      0.817132666666667     15.158878449064700
Pt     -0.000000017911151      0.000000026490366     13.888746140572501
Pt      2.830630614787790      1.634265322645000     11.644137804308800
Pt      1.415315331918020      0.817132665849534      9.311200307296870
Pt      0.000000000000000      0.000000000000000      6.999999942824230
