47

Ag      1.739386633047800      2.151932873174960      7.350000000000000
Ag      4.721192289701160      2.151932873174960      7.350000000000000
Ag      7.702997946354530      2.151932873174960      7.350000000000000
Ag      3.230289461374480      4.734252320984910      7.350000000000000
Ag      6.212095118027840      4.734252320984910      7.350000000000000
Ag      9.193900774681209      4.734252320984910      7.350000000000000
Ag      4.721192289701160      7.316571768794870      7.350000000000000
Ag      7.702997946354530      7.316571768794870      7.350000000000000
Ag     10.684803603007900      7.316571768794870      7.350000000000000
Ag      1.739386633047800      0.430386574634992      9.784634123648431
Ag      4.721192289701160      0.430386574634992      9.784634123648431
Ag      7.702997946354530      0.430386574634992      9.784634123648431
Ag      3.230289461374480      3.012706022444950      9.784634123648431
Ag      6.212095118027840      3.012706022444950      9.784634123648431
Ag      9.193900774681209      3.012706022444950      9.784634123648431
Ag      4.721192289701160      5.595025470254900      9.784634123648431
Ag      7.702997946354530      5.595025470254900      9.784634123648431
Ag     10.684803603007900      5.595025470254900      9.784634123648431
Ag      3.230289296783760      1.291159786447170     12.217792991185000
Ag      6.208002601088080      1.289234736550570     12.189188681071499
Ag      9.197993392943911      1.289234759109510     12.189188689694699
Ag      4.717478837694220      3.870897397145620     12.189188713216200
Ag      7.702997968482030      3.873479058259610     12.174042928196100
Ag     10.688516956315899      3.870897224633060     12.189188714792200
Ag      6.212474220951670      6.460305480324860     12.189188716332300
Ag      9.193521550930299      6.460305378197690     12.189188711499900
Ag     12.175706491219501      6.455798682196190     12.194339234725099
Ag      1.726949067653950      2.159113716513080     14.625350012521800
Ag      4.733629819700910      2.159113703720380     14.625350015181301
Ag      7.702997931887120      2.143261432899950     14.573484199970499
Ag      3.230289416214900      4.740849631739150     14.609917070421700
Ag      6.204585408247230      4.738588035141820     14.573484165092299
Ag      9.201410438900380      4.738588027476890     14.573484192262701
Ag      4.715478819034710      7.313273093494440     14.609917019018701
Ag      7.702997932106440      7.302210124694970     14.625350025914701
Ag     10.690517023716200      7.313273090373460     14.609917129787700
Ag      1.739280256737050      0.430325183822350     17.024711891183401
Ag      4.721298607472060      0.430325174317737     17.024711942170999
Ag      7.702997901989320      0.468021862094241     17.021509241657501
Ag      3.230289426104160      3.012828814335040     17.024711842243299
Pt      6.201552091528190      3.006618987719640     16.941006426321099
Pt      9.204443810325239      3.006618967207110     16.941006386839401
Ag      4.753785349433740      5.576207828996920     17.021509252243700
Pt      7.702997931602400      5.607199536643200     16.941006450366700
Ag     10.652210441952599      5.576207839050330     17.021509341446102
N       7.702997946354530      3.873479171714930     18.106540345851300
O       7.702997937595340      3.873479151124050     19.323118534802500
