36

Pt      1.420013577385010      0.819420178805034      7.000647688538100
Pt      4.260073619552390      0.819324289731482      6.999765863043050
Pt      7.099163528975480      0.820325877835358      6.999530525614070
Pt      0.000542560043586      3.277770354732010      6.999534270246430
Pt      2.839275688735550      3.276320492180160      6.998275082167490
Pt      5.677505165398740      3.277220941304480      7.000314247332600
Pt      1.418608839156470      5.735496798042100      7.001465648768920
Pt      4.258324813395500      5.736976629948120      6.998575251813790
Pt      7.097039933435450      5.737020024333140      6.998849006422580
Pt      0.000375698018346      8.194983792372129      6.999708306250210
Pt      2.838432019851760      8.197436709246560      6.999986502775260
Pt      5.677009741999020      8.196406975974149      6.998779156350030
Pt      0.000208863595005      1.637157216088530      9.316733144747451
Pt      2.839230587699860      1.639855352792410      9.318232699077541
Pt      5.677951804645590      1.638815782516820      9.316582808805981
Pt      1.418797019023600      4.097331576760060      9.319118453022570
Pt      4.258894207985550      4.096029175375660      9.318385414765739
Pt      7.097199233879550      4.097115293530720      9.318673007085190
Pt      0.001030999522496      6.557398824968750      9.317222113273120
Pt      2.838724514088140      6.556798808281040      9.319036875923469
Pt      5.677588278690130      6.556281885872980      9.316954995822339
Pt      1.418320656607910      9.015955399990650      9.319417570824919
Pt      4.258478579574400      9.016146407066151      9.318422966821389
Pt      7.096939196405370      9.015504269773761      9.319599367362811
Pt     -0.000126389136907      0.001061404921525     11.656644406980901
Pt      2.839259236698980      0.000574108890350     11.655909962971799
Pt      5.677892244276430      0.000825402211821     11.655852973537900
Pt      1.419166998235400      2.459789141637890     11.655268351500901
Pt      4.258856165964200      2.459190651650790     11.655904704650700
Pt      7.097448501142320      2.459061556196740     11.654804720224099
Pt     -0.000246707952671      4.918548920815210     11.655408389425100
Pt      2.839291556498570      4.917602624924060     11.655275593506000
Pt      5.677933071264090      4.918249188472020     11.655376981356600
Pt      1.419480758205640      7.376811110352820     11.656223926944101
Pt      4.259049237381620      7.376560881915970     11.655154517716500
Pt      7.097385017119760      7.376376900549740     11.654963634456600
