64

Cu      1.299750000000000      1.299750000000000     10.000000000000000
Cu      3.899260000000000      1.299750000000000     10.000000000000000
Cu      6.498770000000000      1.299750000000000     10.000000000000000
Cu      9.098280000000001      1.299750000000000     10.000000000000000
Cu      1.299750000000000      3.899260000000000     10.000000000000000
Cu      3.899260000000000      3.899260000000000     10.000000000000000
Cu      6.498770000000000      3.899260000000000     10.000000000000000
Cu      9.098280000000001      3.899260000000000     10.000000000000000
Cu      1.299750000000000      6.498770000000000     10.000000000000000
Cu      3.899260000000000      6.498770000000000     10.000000000000000
Cu      6.498770000000000      6.498770000000000     10.000000000000000
Cu      9.098280000000001      6.498770000000000     10.000000000000000
Cu      1.299750000000000      9.098280000000001     10.000000000000000
Cu      3.899260000000000      9.098280000000001     10.000000000000000
Cu      6.498770000000000      9.098280000000001     10.000000000000000
Cu      9.098280000000001      9.098280000000001     10.000000000000000
Cu      0.000000000000000      0.000000000000000     11.838130000000000
Cu      2.599510000000000      0.000000000000000     11.838130000000000
Cu      5.199020000000000      0.000000000000000     11.838130000000000
Cu      7.798530000000000      0.000000000000000     11.838130000000000
Cu      0.000000000000000      2.599510000000000     11.838130000000000
Cu      2.599510000000000      2.599510000000000     11.838130000000000
Cu      5.199020000000000      2.599510000000000     11.838130000000000
Cu      7.798530000000000      2.599510000000000     11.838130000000000
Cu      0.000000000000000      5.199020000000000     11.838130000000000
Cu      2.599510000000000      5.199020000000000     11.838130000000000
Cu      5.199020000000000      5.199020000000000     11.838130000000000
Cu      7.798530000000000      5.199020000000000     11.838130000000000
Cu      0.000000000000000      7.798530000000000     11.838130000000000
Cu      2.599510000000000      7.798530000000000     11.838130000000000
Cu      5.199020000000000      7.798530000000000     11.838130000000000
Cu      7.798530000000000      7.798530000000000     11.838130000000000
Cu      1.299990000000000      1.299990000000000     13.680949999999999
Cu      3.899720000000000      1.301760000000000     13.680650000000000
Cu      6.498310000000000      1.301760000000000     13.680650000000000
Cu      9.098050000000001      1.299990000000000     13.680949999999999
Cu      1.301760000000000      3.899720000000000     13.680650000000000
Cu      3.900140000000000      3.900140000000000     13.684480000000001
Cu      6.497900000000000      3.900140000000000     13.684469999999999
Cu      9.096280000000000      3.899730000000000     13.680650000000000
Cu      1.301760000000000      6.498310000000000     13.680650000000000
Cu      3.900140000000000      6.497900000000000     13.684469999999999
Cu      6.497910000000000      6.497910000000000     13.684450000000000
Cu      9.096280000000000      6.498310000000000     13.680650000000000
Cu      1.299990000000000      9.098050000000001     13.680949999999999
Cu      3.899730000000000      9.096280000000000     13.680650000000000
Cu      6.498310000000000      9.096280000000000     13.680650000000000
Cu      9.098050000000001      9.098050000000001     13.680949999999999
Cu     10.398040000000000     10.398040000000000     15.469030000000000
Cu      2.601200000000000      0.000000000000000     15.467280000000001
Cu      5.199020000000000      0.000000000000000     15.465180000000000
Cu      7.796840000000000      0.000000000000000     15.467280000000001
Cu      0.000000000000000      2.601200000000000     15.467280000000001
Cu      2.599180000000000      2.599180000000000     15.470940000000001
Cu      5.199020000000000      2.598560000000000     15.475690000000000
Cu      7.798860000000000      2.599180000000000     15.470940000000001
Cu      0.000000000000000      5.199020000000000     15.465180000000000
Cu      2.598560000000000      5.199020000000000     15.475690000000000
Cu      5.199020000000000      5.199020000000000     15.477010000000000
Cu      7.799480000000000      5.199020000000000     15.475700000000000
Cu      0.000000000000000      7.796840000000000     15.467280000000001
Cu      2.599180000000000      7.798860000000000     15.470940000000001
Cu      5.199020000000000      7.799480000000000     15.475700000000000
Cu      7.798860000000000      7.798860000000000     15.470940000000001
