35

Cu      2.472110000000000      2.173360000000000     11.303110000000000
Cu      4.915270000000000      1.701570000000000     11.958200000000000
Cu      0.472960000000000      1.234010000000000     12.577040000000000
Cu      2.954580000000000      0.752790000000000     13.338960000000000
Cu      5.426840000000000      0.278790000000000     14.042550000000000
Cu      1.474190000000000      2.363220000000000     14.757890000000000
Cu      3.915400000000000      1.892370000000000     15.463160000000000
Cu      6.396310000000000      1.435340000000000     16.183290000000000
Cu      1.987740000000000      0.945320000000000     16.911120000000000
Cu      4.427660000000000      0.476930000000000     17.528910000000000
Cu      6.860830000000000     -0.013880000000000     18.184239999999999
Cu      2.963370000000000      4.726020000000000     11.303110000000000
Cu      5.406530000000000      4.254240000000000     11.958200000000000
Cu      0.964220000000000      3.786670000000000     12.577040000000000
Cu      3.445840000000000      3.305450000000000     13.338960000000000
Cu      5.918100000000000      2.831460000000000     14.042550000000000
Cu      1.965450000000000      4.915880000000000     14.757890000000000
Cu      4.402580000000000      4.451950000000000     15.460480000000000
Cu      6.878000000000000      3.954100000000000     16.185369999999999
Cu      2.460930000000000      3.497400000000000     16.904640000000001
Cu      4.877200000000000      3.035200000000000     17.523360000000000
Cu      0.443700000000000      2.562690000000000     18.286330000000000
Cu      3.454630000000000      7.278680000000000     11.303110000000000
Cu      5.897790000000000      6.806900000000000     11.958200000000000
Cu      1.455480000000000      6.339330000000000     12.577040000000000
Cu      3.937100000000000      5.858110000000000     13.338960000000000
Cu      6.409360000000000      5.384120000000000     14.042550000000000
Cu      2.456710000000000      7.468550000000000     14.757890000000000
Cu      4.893590000000000      6.996100000000000     15.463580000000000
Cu      7.366460000000000      6.525650000000000     16.157229999999998
Cu      2.976100000000000      6.044040000000000     16.928789999999999
Cu      5.406220000000000      5.577810000000000     17.528540000000000
Cu      7.839930000000000      5.134950000000000     18.190329999999999
C       0.518300000000000      2.531510000000000     20.140460000000001
O       7.371490000000000      2.526110000000000     21.301290000000002
