30

N       1.490934648131840      2.981869296263670     15.892893835411099
Pt      1.490942974976100      1.373576995639720     14.694269544815500
Pt      1.490942977980240      4.590161598744220     14.694269551312299
Ag      4.472807780622410      1.441203519798810     14.699042192411200
Ag      4.472807784038670      4.522535078448470     14.699042203685501
Ag      0.017410897633513     -0.000000005302735     12.617710257589200
Ag      0.009477570318634      2.981869293930310     12.660753116314501
Ag      2.964461784823940     -0.000000001623560     12.617707528676100
Ag      2.972391995345230      2.981869297220110     12.660750710286900
Ag      1.490930959258690      1.498774460453210     10.517135718574799
Ag      1.490930959846880      4.464964124249480     10.517135715458201
Ag      4.472802208951070      1.495542887264270     10.546510104655400
Ag      4.472802210713830      4.468195701070440     10.546510101157700
Ag      0.000000000000000      0.000000000000000      8.433999915659999
Ag      0.000000000000000      2.981869296263670      8.433999915659999
Ag      2.981869296263670      0.000000000000000      8.433999915659999
Ag      2.981869296263670      2.981869296263670      8.433999915659999
Ag      1.490934648131840      1.490934648131840      6.325500000000000
Ag      1.490934648131840      4.472803944395510      6.325500000000000
Ag      4.472803944395510      1.490934648131840      6.325500000000000
Ag      4.472803944395510      4.472803944395510      6.325500000000000
Ag      0.000000000000000      0.000000000000000      4.217000084340000
Ag      0.000000000000000      2.981869296263670      4.217000084340000
Ag      2.981869296263670      0.000000000000000      4.217000084340000
Ag      2.981869296263670      2.981869296263670      4.217000084340000
Ag      1.490934648131840      1.490934648131840      2.108499915660000
Ag      1.490934648131840      4.472803944395510      2.108499915660000
Ag      4.472803944395510      1.490934648131840      2.108499915660000
Ag      4.472803944395510      4.472803944395510      2.108499915660000
O       1.490930168523840      2.981869292067290     17.094659121718699
