66

Cu      1.299750000000000      1.299750000000000     10.000000000000000
Cu      3.899260000000000      1.299750000000000     10.000000000000000
Cu      6.498770000000000      1.299750000000000     10.000000000000000
Cu      9.098280000000001      1.299750000000000     10.000000000000000
Cu      1.299750000000000      3.899260000000000     10.000000000000000
Cu      3.899260000000000      3.899260000000000     10.000000000000000
Cu      6.498770000000000      3.899260000000000     10.000000000000000
Cu      9.098280000000001      3.899260000000000     10.000000000000000
Cu      1.299750000000000      6.498770000000000     10.000000000000000
Cu      3.899260000000000      6.498770000000000     10.000000000000000
Cu      6.498770000000000      6.498770000000000     10.000000000000000
Cu      9.098280000000001      6.498770000000000     10.000000000000000
Cu      1.299750000000000      9.098280000000001     10.000000000000000
Cu      3.899260000000000      9.098280000000001     10.000000000000000
Cu      6.498770000000000      9.098280000000001     10.000000000000000
Cu      9.098280000000001      9.098280000000001     10.000000000000000
Cu      0.000000000000000      0.000000000000000     11.838130000000000
Cu      2.599510000000000      0.000000000000000     11.838130000000000
Cu      5.199020000000000      0.000000000000000     11.838130000000000
Cu      7.798530000000000      0.000000000000000     11.838130000000000
Cu      0.000000000000000      2.599510000000000     11.838130000000000
Cu      2.599510000000000      2.599510000000000     11.838130000000000
Cu      5.199020000000000      2.599510000000000     11.838130000000000
Cu      7.798530000000000      2.599510000000000     11.838130000000000
Cu      0.000000000000000      5.199020000000000     11.838130000000000
Cu      2.599510000000000      5.199020000000000     11.838130000000000
Cu      5.199020000000000      5.199020000000000     11.838130000000000
Cu      7.798530000000000      5.199020000000000     11.838130000000000
Cu      0.000000000000000      7.798530000000000     11.838130000000000
Cu      2.599510000000000      7.798530000000000     11.838130000000000
Cu      5.199020000000000      7.798530000000000     11.838130000000000
Cu      7.798530000000000      7.798530000000000     11.838130000000000
Cu      1.296850000000000      1.296850000000000     13.680149999999999
Cu      3.897130000000000      1.301280000000000     13.674460000000000
Cu      6.500890000000000      1.301280000000000     13.674460000000000
Cu      9.101210000000000      1.296840000000000     13.680149999999999
Cu      1.301280000000000      3.897130000000000     13.674460000000000
Cu      3.915050000000000      3.915050000000000     13.698110000000000
Cu      6.482980000000000      3.915050000000000     13.698100000000000
Cu      9.096780000000001      3.897130000000000     13.674460000000000
Cu      1.301280000000000      6.500890000000000     13.674460000000000
Cu      3.915050000000000      6.482980000000000     13.698100000000000
Cu      6.482980000000000      6.482980000000000     13.698090000000001
Cu      9.096780000000001      6.500890000000000     13.674460000000000
Cu      1.296840000000000      9.101210000000000     13.680149999999999
Cu      3.897130000000000      9.096780000000001     13.674460000000000
Cu      6.500890000000000      9.096780000000001     13.674460000000000
Cu      9.101210000000000      9.101210000000000     13.680149999999999
Cu     10.398040000000000     10.398040000000000     15.474370000000000
Cu      2.602740000000000      0.000010000000000     15.462220000000000
Cu      5.199010000000000      0.000010000000000     15.457450000000000
Cu      7.795300000000000      0.000010000000000     15.462240000000000
Cu      0.000010000000000      2.602740000000000     15.462220000000000
Cu      2.597520000000000      2.597520000000000     15.452680000000001
Cu      5.199010000000000      2.569890000000000     15.460670000000000
Cu      7.800520000000000      2.597520000000000     15.452700000000000
Cu      0.000010000000000      5.199010000000000     15.457450000000000
Cu      2.569890000000000      5.199010000000000     15.460670000000000
Cu      5.199010000000000      5.199010000000000     15.620680000000000
Cu      7.828150000000000      5.199010000000000     15.460690000000000
Cu      0.000010000000000      7.795300000000000     15.462240000000000
Cu      2.597520000000000      7.800520000000000     15.452700000000000
Cu      5.199010000000000      7.828150000000000     15.460690000000000
Cu      7.800520000000000      7.800520000000000     15.452710000000000
O       5.199300000000000      5.199300000000000     18.646570000000001
C       5.199180000000000      5.199180000000000     17.483940000000000
