39

Pt      2.326221034144700      1.601019119803580     11.285069267176500
Pt      2.325545248410770      4.370743913110320     11.285872740362000
Ag      2.467414398159820      7.454138709822760     11.514503379765600
Ag      0.057052043997114      0.014354933817190     10.781421398170600
Ag     -0.054785766367718      2.986250527454780     10.767564838979400
Ag      0.054688392037150      5.956584223081520     10.782670278365901
Ag      4.867809805334030      1.481123947037260     10.041587990709299
Ag      4.867437560540890      4.491094199745080     10.042194167242700
Ag      4.967964054584640      7.458786092849010      9.966850328134459
Ag      2.499237253948960     -0.007083970591590      9.013008884448150
Ag      2.459990312314290      2.986262823888030      8.894116268033279
Ag      2.498827775509520      5.977641504290650      9.010301088346690
Ag     -0.019931846619688      1.486046901623900      8.208023254846429
Ag     -0.020366377195704      4.483016691190600      8.206976304419699
Ag      0.024289473140204      7.457264408087460      8.203744467312919
Ag      4.895381283856270      0.003005941254928      7.347098363066610
Ag      4.900838786441060      2.984180015475800      7.354475651687850
Ag      4.895047570006990      5.965970884272420      7.346846181795270
Ag      2.443973732757640      1.483381008880780      6.445659422154760
Ag      2.444330333175480      4.484046132142410      6.444225999714240
Ag      2.452871811714320      7.456655206679440      6.475473876987770
Ag      0.000000000000000      0.000000000000000      5.629891901506160
Ag      0.000000000000000      2.981869266444980      5.629891901506160
Ag      0.000000000000000      5.963738622346030      5.629891901506160
Ag      4.870095451500440      1.490934677950530      4.768972526959110
Ag      4.870095451500440      4.472803944395510      4.768972526959110
Ag      4.870095451500440      7.454673210840480      4.768972526959110
Ag      2.435047689224500      0.000000000000000      3.908053152412050
Ag      2.435047689224500      2.981869266444980      3.908053152412050
Ag      2.435047689224500      5.963738622346030      3.908053152412050
Ag      0.000000000000000      1.490934677950530      3.047133752462650
Ag      0.000000000000000      4.472803944395510      3.047133752462650
Ag      0.000000000000000      7.454673210840480      3.047133752462650
Ag      4.870095451500440      0.000000000000000      2.186214377915600
Ag      4.870095451500440      2.981869266444980      2.186214377915600
Ag      4.870095451500440      5.963738622346030      2.186214377915600
Ag      2.435047689224500      1.490934677950530      1.325295003368540
Ag      2.435047689224500      4.472803944395510      1.325295003368540
Ag      2.435047689224500      7.454673210840480      1.325295003368540
