28

Ir     -0.000000389792920     -0.000000172946833      6.043339507831780
Ir      2.742134243799550      0.000000028720049      6.043339969559070
Ir      4.113201436787180      2.374757463690780      6.043340687633830
Ir      1.371066581438760      2.374758071812970      6.043339682964430
Ir      1.371067168881070      0.791586023652659      8.251472301839391
Ir      4.113200987746730      0.791586184175865      8.251471957036140
Ir      2.742133995381030      3.166343452104160      8.251473249993730
Ir      5.484267923568370      3.166343530940120      8.251472689654451
Ir      5.484267912821680      1.583171777887810     10.477885999710500
Ir      4.113200934616260      3.957929444719530     10.477885999710500
Ir      6.855334891027100      3.957929444719530     10.477885999710500
Ir      2.742133956410840      1.583171777887810     10.477885999710500
Ir      2.742133956410840     -0.000000000000000     12.716828999565800
Ir      0.000000000000004     -0.000000000000000     12.716828999565800
Ir      4.113200934616260      2.374757666831720     12.716828999565800
Ir      1.371066978205420      2.374757666831720     12.716828999565800
Ir      1.371066978205420      0.791585888943905     14.955771999421099
Ir      4.113200934616260      0.791585888943906     14.955771999421099
Ir      2.742133956410850      3.166343555775620     14.955771999421099
Ir      5.484267912821680      3.166343555775620     14.955771999421099
Ir      2.742134023871180      1.583171430550000     17.182180716511802
Ir      5.484267633595270      1.583171279805950     17.182180761972202
Ir      4.113201094782560      3.957929510698890     17.182181587219201
Ir      6.855334926289790      3.957929480237310     17.182181802655599
Ir      0.000000254104773      0.000000193330007     19.390341506638801
Ir      2.742133867825710     -0.000000168567490     19.390341354060599
Ir      1.371067386366680      2.374757762011990     19.390341291472001
Ir      4.113200964268020      2.374757924036780     19.390340693971901
