18

N       1.490516000000000      0.860550000000000     15.974947700000000
O       1.490516000000000      0.860550000000000     17.158324400000001
Ag      5.962063500000000      0.000000600000000     14.275729999999999
Ag      7.452579500000000      2.581650600000000     14.274014899999999
Ag      2.981031500000000      0.000000600000000     14.274015100000000
Ag      4.471547500000000      2.581650600000000     14.242134000000000
Ag      2.981031100000000      1.721099200000000     11.841009400000001
Ag      4.471547100000000      4.302749200000000     11.841819299999999
Ag      5.962063100000000      1.721099200000000     11.841819299999999
Ag      7.452579100000000      4.302749200000000     11.846969400000001
Ag      1.490516000000000      0.860550000000000      9.434002599999999
Ag      2.981032000000000      3.442200000000000      9.434002599999999
Ag      4.471548000000000      0.860550000000000      9.434002599999999
Ag      5.962064000000000      3.442200000000000      9.434002599999999
Ag      0.000000000000000      0.000000000000000      6.999999900000000
Ag      1.490516000000000      2.581650000000000      6.999999900000000
Ag      2.981032000000000      0.000000000000000      6.999999900000000
Ag      4.471548000000000      2.581650000000000      6.999999900000000
