41

Cu      4.325820000000000      0.455980000000000     11.220780000000000
Cu      6.849220000000000      0.227990000000000     11.802060000000001
Cu      0.000000000000000      0.000000000000000     12.383340000000000
Cu      5.407280000000000      2.051920000000000     12.964620000000000
Cu      7.930680000000000      1.823930000000000     13.545890000000000
Cu     10.454070000000000      1.595940000000000     14.127170000000000
Cu      3.604860000000000      1.367950000000000     14.708449999999999
Cu      6.138590000000000      1.183890000000000     15.303490000000000
Cu      8.654480000000000      0.923070000000000     15.825450000000000
Cu      1.824390000000000      0.682220000000000     16.493359999999999
Cu      4.339870000000000      0.459880000000000     17.040920000000000
Cu      6.857830000000000      0.206460000000000     17.521210000000000
Cu      8.652889999999999      6.828680000000000     18.047249999999998
Cu      7.209710000000000      2.735900000000000     11.220780000000000
Cu      9.733100000000000      2.507900000000000     11.802060000000001
Cu      2.883890000000000      2.279910000000000     12.383340000000000
Cu      8.291169999999999      4.331830000000000     12.964620000000000
Cu     10.814570000000000      4.103840000000000     13.545890000000000
Cu     13.337960000000001      3.875850000000000     14.127170000000000
Cu      6.488740000000000      3.647860000000000     14.708449999999999
Cu      8.992430000000001      3.425500000000000     15.283950000000001
Cu     11.504360000000000      3.197920000000000     15.871670000000000
Cu      4.722540000000000      2.943450000000000     16.508320000000001
Cu      7.215340000000000      2.752380000000000     17.195799999999998
Cu      9.710050000000001      2.511240000000000     17.634860000000000
Cu     12.226820000000000      2.316910000000000     18.079799999999999
Cu     10.093600000000000      5.015810000000000     11.220780000000000
Cu     12.616989999999999      4.787820000000000     11.802060000000001
Cu      5.767780000000000      4.559830000000000     12.383340000000000
Cu     11.175060000000000      6.611750000000000     12.964620000000000
Cu     13.698449999999999      6.383760000000000     13.545890000000000
Cu     16.221850000000000      6.155760000000000     14.127170000000000
Cu      9.372629999999999      5.927770000000000     14.708449999999999
Cu     11.886279999999999      5.723060000000000     15.290210000000000
Cu     14.402889999999999      5.487110000000000     15.848979999999999
Cu      7.579850000000000      5.228010000000000     16.460200000000000
Cu     10.106370000000000      5.015870000000000     17.019089999999998
Cu     12.618140000000000      4.787620000000000     17.537189999999999
Cu     15.095140000000001      4.620530000000000     18.085640000000001
C       8.204929999999999      2.651190000000000     18.952000000000002
O       8.056440000000000      2.702090000000000     20.125250000000001
