36

Au      2.427927047880640      7.433978000011860      5.000000000000000
Au      2.427927047880640      4.460386800007120      5.000000000000000
Au      2.427927047880640      1.486795600002370      5.000000000000000
Au      4.855854095761300      5.947182400009490      5.858401839891320
Au      4.855854095761300      2.973591200004740      5.858401839891320
Au      4.855854095761300     -0.000000000000007      5.858401839891320
Au     -0.000000000000004      7.433978000011870      6.716803679782640
Au     -0.000000000000005      4.460386800007120      6.716803679782640
Au     -0.000000000000004      1.486795600002370      6.716803679782640
Au      2.427927047880650      2.973591200004740      7.575205519673960
Au      2.427927047880650      5.947182400009490      7.575205519673960
Au      2.427927047880650     -0.000000000000004      7.575205519673960
Au      4.855854095761300      7.433978000011870      8.433607359565279
Au      4.855854095761300      1.486795600002370      8.433607359565279
Au      4.855854095761300      4.460386800007120      8.433607359565279
Au     -0.000000000000007      5.947182400009490      9.292009199456601
Au     -0.000000000000006      2.973591200004740      9.292009199456610
Au     -0.000000000000006     -0.000000000000003      9.292009199456610
Au      2.427927047880650      1.486795600002370     10.150411039347899
Au      2.427927047880650      4.460386800007120     10.150411039347899
Au      2.427927047880650      7.433978000011870     10.150411039347899
Au      4.855854095761300      5.947182400009500     11.008812879239199
Au      4.855854095761300      2.973591200004750     11.008812879239199
Au      4.855854095761300     -0.000000000000003     11.008812879239301
Au      0.085186560381506      7.433973400117100     11.825188998385901
Au      0.085183178681592      4.460390659970110     11.825193749983400
Au      0.085185955750497      1.486806069536680     11.825189734347299
Au      2.476708794841150      2.973592844484160     12.870306840252200
Au      2.476717889718150      5.947185766922560     12.870309137363400
Au      2.476721251762680      0.000000121954328     12.870305262708699
Au      4.825260741581050      4.460388387431010     13.636156966772200
Au      4.825260907120180      7.433976867009420     13.636149302168700
Au      4.825260463948410      1.486793621946460     13.636114726342701
Au     -0.057234150674626      5.947185907544000     14.313940986266100
Au     -0.057228621278950      0.000010784610789     14.313945556935399
Au     -0.057233926273753      2.973611035727700     14.313940131075300
