18

Al      1.420425500000000      1.420425500000000      9.999999673594500
Al      0.000000000000000      0.000000000000000     12.008784023653000
Al      1.433426414557740      1.433422857371880     14.007123028969501
Al     -0.000000139210743     -0.000000384721707     16.003286978872499
Al      1.420425500000000      4.261276500000000      9.999999673594500
Al      0.000000000000000      2.840851000000000     12.008784023653000
Al      1.433424983376800      4.248278431280950     14.007125890659401
Al      0.000000403656676      2.840851394287880     16.036687383989399
Al      4.261276500000000      1.420425500000000      9.999999673594500
Al      2.840851000000000      0.000000000000000     12.008784023653000
Al      4.248278471654410      1.433422838319790     14.007125904410600
Al      2.840851085628280     -0.000000081547498     16.036684754318699
Al      4.261276500000000      4.261276500000000      9.999999673594500
Al      2.840851000000000      2.840851000000000     12.008784023653000
Al      4.248276033066130      4.248277187183710     14.007122129014000
Al      2.840851989398080      2.840850720485880     16.058178759988799
O      -0.000004281942601      0.000005416143624     19.146302288534500
C      -0.000006400016674      0.000003445371146     17.994578066157899
