32

Au      2.973591073235310     -0.000000233680618      5.946203444859690
Au     -0.000000854217800      0.000738277539972      5.947880525554280
Au      1.486156803555790      2.574836561236260      5.947881617995000
Au      4.461025539414300      2.574836382572200      5.947880801095840
Au      1.486656224325890      0.858482637487669      8.449850121042379
Au      2.973590808089280      3.433606325773980      8.450823242272520
Au      5.947181172027050      3.433448629718060      8.449848657914510
Au      4.460526062964600      0.858482195184821      8.449851360678190
Au      5.947182400009500      1.716803679782640     10.855854095761300
Au      2.973591200004750      1.716803679782640     10.855854095761300
Au      4.460386800007130      4.292009199456610     10.855854095761300
Au      7.433978000011870      4.292009199456610     10.855854095761300
Au      2.973591200004750      0.000000000000001     13.283781143642001
Au      0.000000000000000      0.000000000000001     13.283781143642001
Au      1.486795600002370      2.575205519673970     13.283781143642001
Au      4.460386800007120      2.575205519673970     13.283781143642001
Au      1.486795600002380      0.858401839891324     15.711708191522600
Au      4.460386800007120      0.858401839891324     15.711708191522600
Au      5.947182400009500      3.433607359565290     15.711708191522600
Au      2.973591200004750      3.433607359565290     15.711708191522600
Au      2.973592575607190      1.709909556054050     18.124323501684799
Au      5.947182933940350      1.716804720897340     18.094837847299399
Au      4.466357910385700      4.295457937785980     18.124324167895001
Au      7.428007819338290      4.295456643969530     18.124322865955001
Au      2.973592036536070      0.000002057101744     20.615585446326499
Au      0.000000957590432      0.005452326159143     20.583579777185498
Au      1.482075376993870      2.572482039182300     20.583579604799301
Au      4.465107377199140      2.572481757701110     20.583579458278500
N       2.973588948391640      0.000001412782646     23.202429843621200
H       2.973590457938550      0.956519677429607     23.549711054236401
H       2.145221723310720     -0.478257708785916     23.549709084527201
H       3.801960500818690     -0.478258607720015     23.549710839219401
