51

Pt      2.318558044949360      1.419378598930820     -9.014495185630150
Pt      2.319584360652760      4.258316436321260     -9.015377011125199
Pt      0.001579212815507      1.420284297961150     -7.376495462341780
Pt      0.000542560043586      4.258087172003170     -7.376491717709420
Pt      4.636364623864260     -0.001913280244658     -8.197309348894560
Pt      4.635560374063450      2.838020895343650     -8.195270183729450
Pt      2.317153306720830      2.837621422762650     -6.555001896080720
Pt      4.635896885292210      1.419584391436680     -5.738333849929650
Pt      4.635578278868170      4.258661512285690     -5.738060095320860
Pt      2.318437028814690     -0.000600638689920     -6.556759238599430
Pt     -0.000601706612230      0.001852278184507     -4.917364155861970
Pt      2.317003619867390      1.420339408144100     -4.099013059181000
Pt      2.318270194391350      4.256590919572100     -4.099120401579920
Pt      0.000196861235868      2.839772193043980     -4.917179290356040
Pt     -0.000115648282390      1.419215759536400     -2.460153851308980
Pt     -0.000719844208396      4.258089950925020     -2.457618207092400
Pt      4.636466279882260      2.837270686308620     -3.277909688455420
Pt      4.635737579312280     -0.000676922000307     -3.277622096135980
Pt      2.291359483291450     -0.002722968579278     -1.521944925296360
Pt      4.552986937970540      1.420168909022990     -0.806151499790082
Pt      4.570321341169760      4.266305484098250     -0.821270727569511
Pt      2.299683671995360      2.836506162734910     -1.533162508469390
Pt     -0.075632488389183      2.800916751166450     -0.018798762925119
Pt     -0.122304436051924     -0.000565126672929     -0.088963096491634
Pt      2.318558044949360      7.097446051858800     -9.014495185630150
Pt      2.319584360652760      9.936383889249230     -9.015377011125199
Pt      0.001579212815508      7.098351750889120     -7.376495462341780
Pt      0.000542560043586      9.936154624931151     -7.376491717709420
Pt      4.636364623864260      5.676154172683320     -8.197309348894560
Pt      4.635560374063450      8.516088348271630     -8.195270183729450
Pt      2.317153306720830      8.515688875690630     -6.555001896080720
Pt      4.635896885292210      7.097651844364660     -5.738333849929650
Pt      4.635578278868170      9.936728965213669     -5.738060095320860
Pt      2.318437028814690      5.677466814238060     -6.556759238599430
Pt     -0.000601706612230      5.679919731112480     -4.917364155861970
Pt      2.317003619867390      7.098406861072070     -4.099013059181000
Pt      2.318270194391350      9.934658372500079     -4.099120401579920
Pt      0.000196861235869      8.517839645971961     -4.917179290356040
Pt     -0.000115648282389      7.097283212464380     -2.460153851308980
Pt     -0.000719844208396      9.936157403853001     -2.457618207092400
Pt      4.636466279882260      8.515338139236601     -3.277909688455430
Pt      4.635737579312280      5.677390530927670     -3.277622096135980
Pt      2.312362813156800      5.675215501714270     -1.552860217183230
Pt      4.548029762471100      7.111105748328440     -0.809191550637662
Pt      4.541852504986890      9.943362899156080     -0.797320083650452
Pt      2.291033988848110      8.520035792342121     -1.518565542748530
Pt     -0.126681950755522      8.563052315625200     -0.086131716125802
Pt     -0.063468914627633      5.787423849555170     -0.087522675994517
O       0.086758048385354      4.813675101505770      1.955739453380160
C       0.079862455357013      3.593148001731640      1.761646252416660
H       0.181894297860661      2.934032182827340      2.638302659049720
