15

Pd      1.409415569745530      0.813726444042554      9.999999151569099
Pd      4.228246870265570      0.813726444042554      9.999999151569099
Pd      2.818830970005570      3.254905771287860      9.999999151569099
Pd      5.637662270525610      3.254905771287860      9.999999151569099
Pd      5.637662431554600      1.627452883202750     12.301565129456399
Pd      2.818831131034560      1.627452883202750     12.301565129456399
Pd      7.047077831814640      4.068632210448050     12.301565129456399
Pd      4.228246531294600      4.068632210448050     12.301565129456399
Pd      0.000022232791969     -0.006537492885439     14.621290530168899
Pd      2.818800894483800     -0.006805934728980     14.606071575059600
Pd      1.409528816654440      2.434177756405040     14.605845152451900
Pd      4.228126560085260      2.434207021262810     14.605813389810701
O      -0.000157660052338     -0.000011048777635     17.369609865533999
H       5.637734567695710      0.779747795927952     17.951909839022299
H       2.818897658423850      4.103229282521630     17.952657208310200
