20

H       0.939340000000000      0.000000000000000      7.912610000000000
H       4.559550000000000      0.823680000000000      7.894420000000000
H       4.559550000000000      4.223570000000000      7.894420000000000
Cu      1.261810000000000      1.261810000000000      0.000000000000000
Cu      3.785440000000000      1.261810000000000      0.000000000000000
Cu      1.261810000000000      3.785440000000000      0.000000000000000
Cu      3.785440000000000      3.785440000000000      0.000000000000000
Cu      0.000000000000000      0.000000000000000      1.784480000000000
Cu      2.523630000000000      0.000000000000000      1.784480000000000
Cu      0.000000000000000      2.523630000000000      1.784480000000000
Cu      2.523630000000000      2.523630000000000      1.784480000000000
Cu      1.253930000000000      1.253610000000000      3.588960000000000
Cu      3.794500000000000      1.253020000000000      3.588900000000000
Cu      1.253930000000000      3.793650000000000      3.588960000000000
Cu      3.794500000000000      3.794230000000000      3.588900000000000
Cu      0.000850000000000      0.000000000000000      5.454510000000000
Cu      2.524070000000000      0.000000000000000      5.280960000000000
Cu      0.000350000000000      2.523630000000000      5.280820000000000
Cu      2.524470000000000      2.523630000000000      5.292130000000000
N      -0.007210000000000      0.000000000000000      7.547770000000000
