15

Cd      1.563551892479380      0.902717104589609      9.999999426228490
Cd      4.690655671183940      0.902717104589609      9.999999426228490
Cd      3.127103781831660      3.610868412942130      9.999999426228490
Cd      6.254207560536220      3.610868412942130      9.999999426228490
Cd      6.254207554282010      1.805434203762920     12.553269111643999
Cd      3.127103775577450      1.805434203762920     12.553269111643999
Cd      7.817759443634290      4.513585512115440     12.553269111643999
Cd      4.690655664929730      4.513585512115440     12.553269111643999
Cd      0.000018787639502     -0.154854745799880     15.463555352306701
Cd      3.127118229051120     -0.195742917969529     15.462137912478200
Cd      1.577083383374860      2.541593400415960     15.462072007815401
Cd      4.677085188431450      2.541552339425820     15.462106202920401
O       3.127014584323480      2.355321878755110     18.771937265205001
H       3.127123191764820      2.819906454371080     19.626791341775100
H       3.127156467276120      1.409229479164680     19.003301521787499
