12

Cu      1.296205577530630      0.748364615203951      9.999999326512020
Cu      3.888616894073710      0.748364615203951      9.999999326512020
Cu      2.592410985802190      2.993458456325620      9.999999326512020
Cu      5.184822302345270      2.993458456325620      9.999999326512020
Cu      5.184822463827110      1.496729225917720     12.116694142539099
Cu      2.592411147284020      1.496729225917720     12.116694142539099
Cu      6.481027872098670      3.741823067039380     12.116694142539099
Cu      3.888616555555580      3.741823067039380     12.116694142539099
Cu     -0.000207201061905     -0.000044731249691     14.218423993131600
Cu      2.592709197665580     -0.000899514808196     14.219086267400000
Cu      1.295537665259210      2.245768087704030     14.218902869117500
Cu      3.889205233261360      2.245372906286120     14.219109507219400
