15

Pb      1.729250547751470      0.998383264677611      9.999999328256211
Pb      5.187751803004050      0.998383264677611      9.999999328256211
Pb      3.458500925377780      3.993533052720140      9.999999328256211
Pb      6.917002180630360      3.993533052720140      9.999999328256211
Pb      6.917002340380010      1.996766523364920     12.823853592495601
Pb      3.458501085127430      1.996766523364920     12.823853592495601
Pb      8.646252718006320      4.991916311407450     12.823853592495601
Pb      5.187751462753740      4.991916311407450     12.823853592495601
Pb     -0.015179417547149      0.002417984423887     15.792655899538699
Pb      3.473693022704530      0.002412407454981     15.792666081678499
Pb      1.729253546331880      2.986542709960830     15.892193291795200
Pb      5.187752503016850      3.011974898209670     15.910471694570100
O       1.729214447242450      0.012007046324798     18.903348529734899
H       1.729257856446110      0.780647915589066     19.503144963588799
H       5.187758429628710      5.223112702285400     19.488743878595201
