36

Pd      2.302996987098890      1.410291874389840      5.000000000000000
Pd      2.302996987098890      4.230875623169490      5.000000000000000
Pd      2.302996987098890      7.051459371949140      5.000000000000010
Pd      4.605993974197790      0.000000000000007      5.814232393314910
Pd      4.605993974197790      2.820583748779660      5.814232393314910
Pd      4.605993974197790      5.641167497559320      5.814232393314910
Pd     -0.000000000000001      1.410291874389830      6.628464786629820
Pd     -0.000000000000000      4.230875623169490      6.628464786629820
Pd     -0.000000000000000      7.051459371949140      6.628464786629820
Pd      2.302996987098890      0.000000000000006      7.442697179944720
Pd      2.302996987098890      2.820583748779660      7.442697179944730
Pd      2.302996987098890      5.641167497559310      7.442697179944730
Pd      4.605993974197790      1.410291874389830      8.256929573259630
Pd      4.605993974197790      4.230875623169490      8.256929573259640
Pd      4.605993974197790      7.051459371949140      8.256929573259640
Pd     -0.000000000000001      0.000000000000006      9.071161966574540
Pd     -0.000000000000001      2.820583748779660      9.071161966574540
Pd     -0.000000000000001      5.641167497559310      9.071161966574550
Pd      2.302996987098890      1.410291874389830      9.885394359889450
Pd      2.302996987098890      4.230875623169480      9.885394359889450
Pd      2.302996987098890      7.051459371949140      9.885394359889460
Pd      4.605993974197790      0.000000000000003     10.699626753204400
Pd      4.605993974197790      2.820583748779660     10.699626753204400
Pd      4.605993974197790      5.641167497559310     10.699626753204400
Pd      0.020333933389553      1.410283628809310     11.483402654498301
Pd      0.020319460462845      4.230875748901070     11.483369045675500
Pd      0.020333705135188      7.051467547229680     11.483402877624901
Pd      2.320339523936830      0.000000041962199     12.408622484819800
Pd      2.320350921777010      2.820613998018710     12.408652503652601
Pd      2.320351102521550      5.641137014266440     12.408653020634700
Pd      4.600772690416650      1.410264118592310     13.139622826212900
Pd      4.600784314528290      4.230875651653520     13.139634845785000
Pd      4.600772485512230      7.051487008210830     13.139623220938200
Pd     -0.007304512005109      0.000000011974029     13.874413937603800
Pd     -0.007336416907236      2.820611247929210     13.874419070582899
Pd     -0.007336362594153      5.641140086511510     13.874419299653800
