47

Pt      1.644446475559820      2.034474889997990      7.350000000000000
Pt      4.463497576519510      2.034474889997990      7.350000000000000
Pt      7.282548677479200      2.034474889997990      7.350000000000000
Pt      3.053972026039670      4.475844757995570      7.350000000000000
Pt      5.873023126999360      4.475844757995570      7.350000000000000
Pt      8.692074227959051      4.475844757995570      7.350000000000000
Pt      4.463497576519510      6.917214625993150      7.350000000000000
Pt      7.282548677479200      6.917214625993150      7.350000000000000
Pt     10.101599778438899      6.917214625993150      7.350000000000000
Pt      1.644446475559820      0.406894977999598      9.651745585394130
Pt      4.463497576519510      0.406894977999598      9.651745585394130
Pt      7.282548677479200      0.406894977999598      9.651745585394130
Pt      3.053972026039670      2.848264845997180      9.651745585394130
Pt      5.873023126999360      2.848264845997180      9.651745585394130
Pt      8.692074227959051      2.848264845997180      9.651745585394130
Pt      4.463497576519510      5.289634713994760      9.651745585394130
Pt      7.282548677479200      5.289634713994760      9.651745585394130
Pt     10.101599778438899      5.289634713994760      9.651745585394130
Pt      3.053966982629450      1.220691036470620     11.936434280767600
Pt      5.866679795288380      1.223941308622210     11.938374767083600
Pt      8.698407761042880      1.223948496299520     11.938381231192100
Pt      4.463141969437140      3.654945324160010     11.938371159897800
Pt      7.282531601319730      3.662054589841010     11.947427859570000
Pt     10.101937421894300      3.654938081780100     11.938378114389399
Pt      5.879006816226590      6.107287360432620     11.938380211287400
Pt      8.686071648498020      6.107288300850390     11.938379235162801
Pt     11.511119369344099      6.103425405684450     11.926171302125400
Pt      1.632389864132700      2.041425614961140     14.258882184022600
Pt      4.475535460853150      2.041434575397920     14.258878527230600
Pt      7.282529473775980      2.042084958336280     14.233668967823300
Pt      3.053972184421520      4.471881496525550     14.206206334472300
Pt      5.879605157112880      4.472037972449880     14.233671190145200
Pt      8.685468544085451      4.472037028657270     14.233651098706201
Pt      4.466918785583930      6.919187400003070     14.206219688494400
Pt      7.282531679497680      6.903305244860940     14.258886583889600
Pt     10.098164087194000      6.919196090327160     14.206189000130999
Pt      1.639402509736530      0.403979877275500     16.564746614421800
Pt      4.468512713245300      0.403997917833199     16.564711843103801
Pt      7.282551259385280      0.375240878191974     16.527927670653899
Pt      3.053966772884020      2.854061826445230     16.564729469129201
Pt      5.827668985982980      2.822075490298520     16.649931019296002
Pt      8.737422608796489      2.822083244976740     16.649891962228299
Pt      4.436081827378350      5.305451414996590     16.527957265156601
Pt      7.282555515851240      5.342002449928920     16.649912962507901
Pt     10.129002852340500      5.305448749373990     16.527899376381900
N       7.282548677479200      3.662054801996370     17.903535494215500
O       7.282597188764320      3.662050738083290     19.109938530010002
