17

O       1.375707000000000      0.794264666666667     14.971832627902300
Ir     -0.056640240790628     -0.032702121841910     13.736940696787499
Ir      1.375707433347710      2.448196420846410     13.736940696787499
Ir      2.808055107486040     -0.032702121841910     13.736940696787499
Ir      4.127121433347710      2.382793392387530     13.660101789957199
Ir      2.753930629614810      1.589980218281950     11.449597288932200
Ir      4.127121579172650      3.968416290312970     11.449597288932200
Ir      5.500312528730480      1.589980218281950     11.449597288932200
Ir      6.878535579172650      3.971321575625630     11.476090803327400
Ir      1.375706998624290      0.794264665872402      9.246519955156160
Ir      2.751413998624290      3.177058665872400      9.246519955156160
Ir      4.127120998624290      0.794264665872402      9.246519955156160
Ir      5.502827998624290      3.177058665872400      9.246519955156160
Ir      0.000000000000000      0.000000000000000      6.999999844728920
Ir      1.375707000000000      2.382794000000000      6.999999844728920
Ir      2.751414000000000      0.000000000000000      6.999999844728920
Ir      4.127121000000000      2.382794000000000      6.999999844728920
