15

Cu      1.296205577530630      0.748364615203951      9.999999326512020
Cu      3.888616894073710      0.748364615203951      9.999999326512020
Cu      2.592410985802190      2.993458456325620      9.999999326512020
Cu      5.184822302345270      2.993458456325620      9.999999326512020
Cu      5.184822463827110      1.496729225917720     12.116694142539099
Cu      2.592411147284020      1.496729225917720     12.116694142539099
Cu      6.481027872098670      3.741823067039380     12.116694142539099
Cu      3.888616555555580      3.741823067039380     12.116694142539099
Cu     -0.000003559353567     -0.000244001288841     14.220677189340901
Cu      2.592410188868840     -0.000221640154183     14.205782670366000
Cu      1.296339220810490      2.244698700115440     14.198467482844800
Cu      3.888488353835370      2.244695992532270     14.198487063422499
O       0.000158551825422      0.000455287070229     17.239081334521700
H       5.184732297376020      0.773165394554541     17.831954377723299
H       2.592334665575660      3.711907555311640     17.823522588370000
