18

O       1.376760000000000      1.376770000000000      8.064420000000000
Pd      1.376770000000000      1.376770000000000      0.000000000000000
Pd      4.130320000000000      1.376770000000000      0.000000000000000
Pd      1.376770000000000      4.130320000000000      0.000000000000000
Pd      4.130320000000000      4.130320000000000      0.000000000000000
Pd      0.000000000000000      0.000000000000000      1.947050000000000
Pd      2.753540000000000      0.000000000000000      1.947050000000000
Pd      0.000000000000000      2.753540000000000      1.947050000000000
Pd      2.753540000000000      2.753540000000000      1.947050000000000
Pd      1.376800000000000      1.376760000000000      3.829290000000000
Pd      4.130330000000000      1.376740000000000      3.876710000000000
Pd      1.376820000000000      4.130320000000000      3.876770000000000
Pd      4.130370000000000      4.130290000000000      3.992490000000000
Pd      0.020100000000000      0.020110000000000      5.876250000000000
Pd      2.733480000000000      0.020080000000000      5.876360000000000
Pd      0.020130000000000      2.733440000000000      5.876320000000000
Pd      2.733480000000000      2.733440000000000      5.876240000000000
N       1.376760000000000      1.376770000000000      6.860350000000000
