66

N       1.366996000000000      0.789235333333333     15.025771671728100
O       1.366996000000000      0.789235333333333     16.233904671808599
Rh     -0.018060002310015     -0.010426947932061     13.739120071640400
Rh      1.366996001367000      2.388559902967240     13.739120071640400
Rh      2.732592887445270      4.729461177812900     13.633297209111999
Rh      4.105442008499710      7.107305083113160     13.633297209111999
Rh      2.752052005044000     -0.010426947932061     13.739120071640400
Rh      4.144408348607880      2.392774757101990     13.635658589141000
Rh      5.465143187413030      4.737052147432930     13.631309549453499
Rh      6.834980001367000      7.052980492899140     13.635658589141000
Rh      5.462130880312550      0.001763746177053     13.633297209111999
Rh      6.834980001367000      2.364425712237240     13.631309549453499
Rh      8.204816815320971      4.737052147432930     13.631309549453499
Rh      9.564517994234301      7.107305083113160     13.633297209111999
Rh      8.207829122421440      0.001763746177053     13.633297209111999
Rh      9.525551654126090      2.392774757101990     13.635658589141000
Rh     10.937367115288700      4.729461177812900     13.633297209111999
Rh     12.302964001367000      7.103118002367710     13.636099686775600
Rh      2.730456214718280      1.576429279629180     11.435706855882900
Rh      4.096771614220590      3.944329198004890     11.427170068347300
Rh      5.467475771117790      6.318457915579430     11.427170068347300
Rh      6.834980009568970      8.685671457315570     11.435706855882900
Rh      5.464275852671770      1.575742902989620     11.427170068347300
Rh      6.834980009568970      3.946176672191310     11.422847313361800
Rh      8.202484248020159      6.318457915579430     11.427170068347300
Rh      9.565124719899320      8.683809906410970     11.432631808481499
Rh      8.205684166466170      1.575742902989620     11.427170068347300
Rh      9.573188404917349      3.944329198004890     11.427170068347300
Rh     10.938468673306200      6.315326431393760     11.429639795539901
Rh     12.302964009568999      8.678701153786429     11.429639795539901
Rh     10.939503804419701      1.576429279629180     11.435706855882900
Rh     12.302964009568999      3.941734203752040     11.432631808481499
Rh     13.667459345831700      6.315326431393760     11.429639795539901
Rh     15.040803299238600      8.683809906410970     11.432631808481499
Rh      1.366995998633000      0.789235332544098      9.232294987107769
Rh      2.733991998633000      3.156941332544100      9.232294987107769
Rh      4.100987998633000      5.524647332544100      9.232294987107769
Rh      5.467983998633000      7.892353332544100      9.232294987107769
Rh      4.100987998633000      0.789235332544098      9.232294987107769
Rh      5.467983998633000      3.156941332544100      9.232294987107769
Rh      6.834979998633000      5.524647332544100      9.232294987107769
Rh      8.201975998632999      7.892353332544100      9.232294987107769
Rh      6.834979998633000      0.789235332544098      9.232294987107769
Rh      8.201975998632999      3.156941332544100      9.232294987107769
Rh      9.568971998633000      5.524647332544100      9.232294987107769
Rh     10.935967998633000      7.892353332544100      9.232294987107769
Rh      9.568971998633000      0.789235332544098      9.232294987107769
Rh     10.935967998633000      3.156941332544100      9.232294987107769
Rh     12.302963998633000      5.524647332544100      9.232294987107769
Rh     13.669959998633001      7.892353332544100      9.232294987107769
Rh      0.000000000000000      0.000000000000000      6.999999940626440
Rh      1.366996000000000      2.367706000000000      6.999999940626440
Rh      2.733992000000000      4.735412000000000      6.999999940626440
Rh      4.100988000000000      7.103118000000000      6.999999940626440
Rh      2.733992000000000      0.000000000000000      6.999999940626440
Rh      4.100988000000000      2.367706000000000      6.999999940626440
Rh      5.467984000000000      4.735412000000000      6.999999940626440
Rh      6.834980000000000      7.103118000000000      6.999999940626440
Rh      5.467984000000000      0.000000000000000      6.999999940626440
Rh      6.834980000000000      2.367706000000000      6.999999940626440
Rh      8.201976000000000      4.735412000000000      6.999999940626440
Rh      9.568972000000000      7.103118000000000      6.999999940626440
Rh      8.201976000000000      0.000000000000000      6.999999940626440
Rh      9.568972000000000      2.367706000000000      6.999999940626440
Rh     10.935968000000001      4.735412000000000      6.999999940626440
Rh     12.302963999999999      7.103118000000000      6.999999940626440
