48

Rh      2.230223453763350      1.365284930170050     -8.670954249204820
Rh      2.231249769466740      4.096035430038950     -8.671836074699860
Rh      0.001579212815507      1.366190629200380     -7.095416514357410
Rh      0.000542560043586      4.095806165720860     -7.095412769725050
Rh      4.459695441492240     -0.001913280244658     -7.884999406689710
Rh      4.458891191691430      2.729833557822110     -7.882960241524600
Rh      2.228818715534810      2.729434085241110     -6.305153942316830
Rh      4.459227702920180      1.365490722675910     -5.519716890386250
Rh      4.458909096496140      4.096380506003380     -5.519443135777460
Rh      2.230102437628680     -0.000600638689920     -6.306911284835550
Rh     -0.000601706612230      0.001852278184508     -4.729978190539050
Rh      2.228669028681380      1.366245739383330     -3.942858088078570
Rh      2.229935603205340      4.094309913289790     -3.942965430477500
Rh      0.000196861235869      2.731584855522440     -4.729793325033130
Rh     -0.000115648282389      1.365122090775630     -2.366460868647530
Rh     -0.000719844208396      4.095808944642710     -2.363925224430940
Rh      4.459797097510240      2.729083348787080     -3.152985711573480
Rh      4.459068396940250     -0.000676922000306     -3.152698119254040
Rh      2.245369628725780      0.000130016643506     -1.514187566785380
Rh      4.463864069396530      1.365131389937100     -0.798221651858106
Rh      4.463343954769120      4.096116827172200     -0.798292577704498
Rh      2.245612055809450      2.731030672402890     -1.513186868001640
Rh     -0.006244335248167      2.730921659268110     -0.065166543265140
Rh     -0.006195070999056      0.000380314145455     -0.065239743114196
Rh      2.230223453763350      6.826977708054950     -8.670954249204820
Rh      2.231249769466740      9.557728207923841     -8.671836074699870
Rh      0.001579212815508      6.827883407085270     -7.095416514357410
Rh      0.000542560043586      9.557498943605751     -7.095412769725050
Rh      4.459695441492240      5.459779497640240     -7.884999406689710
Rh      4.458891191691430      8.191526335707000     -7.882960241524600
Rh      2.228818715534810      8.191126863126010     -6.305153942316840
Rh      4.459227702920180      6.827183500560810     -5.519716890386250
Rh      4.458909096496140      9.558073283888270     -5.519443135777460
Rh      2.230102437628680      5.461092139194970     -6.306911284835550
Rh     -0.000601706612229      5.463545056069400     -4.729978190539060
Rh      2.228669028681380      6.827938517268220     -3.942858088078570
Rh      2.229935603205340      9.556002691174680     -3.942965430477500
Rh      0.000196861235870      8.193277633407330     -4.729793325033130
Rh     -0.000115648282388      6.826814868660530     -2.366460868647530
Rh     -0.000719844208395      9.557501722527601     -2.363925224430940
Rh      4.459797097510240      8.190776126671979     -3.152985711573480
Rh      4.459068396940260      5.461015855884590     -3.152698119254040
Rh      2.245363123496500      5.461793315646300     -1.514149838027820
Rh      4.463800468846430      6.827137793942870     -0.798356688167768
Rh      4.463383218455380      9.558146875654540     -0.798175337987305
Rh      2.245623087887690      8.192341978212260     -1.513181525553120
Rh     -0.006243209803731      8.192166775672471     -0.065178958014527
Rh     -0.006237788222546      5.462044893481990     -0.065252470836469
