38

Rh      0.000000000000000      0.000000000000000     10.000000000000000
Rh      2.729432175380070      0.000000000000000     10.000000000000000
Rh      5.458864350760150      0.000000000000000     10.000000000000000
Rh      1.364716087690040      2.363757601785770     10.000000000000000
Rh      4.094148263070110      2.363757601785770     10.000000000000000
Rh      6.823580438450180      2.363757601785770     10.000000000000000
Rh      2.729432175380070      4.727515203571530     10.000000000000000
Rh      5.458864350760150      4.727515203571530     10.000000000000000
Rh      8.188296526140221      4.727515203571530     10.000000000000000
Rh      1.364716087690040      0.787919200595256     12.228572039072001
Rh      4.094148263070110      0.787919200595256     12.228572039072001
Rh      6.823580438450180      0.787919200595256     12.228572039072001
Rh      2.729432175380070      3.151676802381020     12.228572039072001
Rh      5.458864350760150      3.151676802381020     12.228572039072001
Rh      8.188296526140221      3.151676802381020     12.228572039072001
Rh      4.094148263070110      5.515434404166790     12.228572039072001
Rh      6.823580438450180      5.515434404166790     12.228572039072001
Rh      9.553012613830260      5.515434404166790     12.228572039072001
Rh      0.004831050294860      1.575482078997300     14.429856490053201
Rh      2.729720945347260      1.575567609133230     14.444643387652199
Rh      5.455423693775160      1.575171761697760     14.428585247538001
Rh      1.367173942983500      3.936345461313720     14.430297452509199
Rh      4.092171432194320      3.936721787717790     14.428519984051700
Rh      6.823828192405210      3.939735461480470     14.425108330550700
Rh      2.729841797196250      6.303163984134820     14.424122912630700
Rh      5.461370887667570      6.307228415882630     14.429909073124700
Rh      8.186637150208110      6.306729072861560     14.430457168306599
Rh     -0.022253407901584     -0.013587177571012     16.625601340369499
Rh      2.731232069109540     -0.021959075884245     16.722744251223400
Rh      5.484249292338540     -0.013883182097513     16.624567968912601
Rh      1.347078906939680      2.375380819218740     16.721502426480200
Rh      4.117774938279200      2.376752311106790     16.717838559944902
Rh      6.825870738029960      2.372099575569000     16.637756729646298
Rh      2.730722877555170      4.755360402053640     16.624452248261701
Rh      5.467683666467960      4.724692387555940     16.637359364869699
Rh      8.181525474647261      4.723172137076240     16.638219792301300
C       2.740448016490290      1.580972082042330     18.081590502344302
O       2.744651825209020      1.586335324193350     19.267205603876000
