38

Pd      0.000000000000000      0.000000000000000     10.336787564766800
Pd      2.821356056934320      0.000000000000000     10.336787564766800
Pd      5.642712113868650      0.000000000000000     10.336787564766800
Pd      1.410678028467160      2.443366018426220     10.336787564766800
Pd      4.232034085401490      2.443366018426220     10.336787564766800
Pd      7.053390142335810      2.443366018426220     10.336787564766800
Pd      2.821356056934320      4.886732036852440     10.336787564766800
Pd      5.642712113868650      4.886732036852440     10.336787564766800
Pd      8.464068170802969      4.886732036852440     10.336787564766800
Pd      1.410678028467160      0.814455339475407     12.640415138833401
Pd      4.232034085401490      0.814455339475407     12.640415138833401
Pd      7.053390142335810      0.814455339475407     12.640415138833401
Pd      2.821356056934320      3.257821357901630     12.640415138833401
Pd      5.642712113868650      3.257821357901630     12.640415138833401
Pd      8.464068170802969      3.257821357901630     12.640415138833401
Pd      4.232034085401490      5.701187376327850     12.640415138833401
Pd      7.053390142335810      5.701187376327850     12.640415138833401
Pd      9.874746199270140      5.701187376327850     12.640415138833401
Pd      0.005202683438237      1.634022240274540     14.931657808992400
Pd      2.821850723101910      1.628991094144840     14.950707766941401
Pd      5.639847063261490      1.633543869276280     14.930544551421701
Pd      1.409082741300720      4.066474067380130     14.931890456296999
Pd      4.234781573119440      4.067113647177060     14.930689329511100
Pd      7.054408476851240      4.072584290840820     14.914853735083700
Pd      2.821993052654130      6.515837704186330     14.905300259065299
Pd      5.649908688826660      6.517337687636300     14.931738971843600
Pd      8.458448332506009      6.516867493415800     14.931851350057100
Pd     -0.015274327470304     -0.009260618058556     17.214247513474401
Pd      2.823677901295700     -0.002667293340099     17.325319903783701
Pd      5.662255351288750     -0.009370758142030     17.213386708948502
Pd      1.409934906013860      2.445962369969950     17.325149662044399
Pd      4.238844254646810      2.446783294750970     17.320355696920998
Pd      7.056019137363820      2.450913121576530     17.225957758761101
Pd      2.823394678975260      4.907631555924800     17.213355138477802
Pd      5.650970690560900      4.884514775787290     17.226012035316401
Pd      8.459800149056949      4.883787496141400     17.226172130188200
C       2.827659138189160      1.632343085526960     18.614076497422001
O       2.831881089125690      1.634417611468920     19.793570112329999
