38

Au      1.495320449581370      0.862898621739435      7.000647688538100
Au      4.485994236141490      0.862802732665883      6.999765863043050
Au      7.475697889957310      0.863804320769759      6.999530525614070
Au      0.000542560043586      3.451684126469610      6.999534270246430
Au      2.989889433128290      3.450234263917770      6.998275082167490
Au      5.978732654184200      3.451134713042090      7.000314247332600
Au      1.493915711352840      6.039845898582910      7.001465648768920
Au      4.484245429984600      6.041325730488930      6.998575251813790
Au      7.473574294417280      6.041369124873950      6.998849006422580
Au      0.000375698018346      8.629768221716141      6.999708306250210
Au      2.989045764244490      8.632221138590570      6.999986502775260
Au      5.978237230784490      8.631191405318170      6.998779156350030
Au      0.000208863595005      1.724114101957330      9.439708752084840
Au      2.989844332092590      1.726812238661210      9.441208306414930
Au      5.979179293431060      1.725772668385620      9.439558416143370
Au      1.494103891219970      4.314723791432070      9.442094060359960
Au      4.484814824574650      4.313421390047670      9.441361022103131
Au      7.473733594861390      4.314507508202730      9.441648614422579
Au      0.001030999522496      6.905226368443970      9.440197720610509
Au      2.989338258480870      6.904626351756250      9.442012483260861
Au      5.978815767475600      6.904109429348190      9.439930603159731
Au      1.493627528804280      9.494218272269061      9.442393178162311
Au      4.484399196163500      9.494409279344559      9.441398574158789
Au      7.473473557387200      9.493767142052180      9.442574974700200
Au     -0.021638404348929      0.004417347089309     11.955292893760999
Au      2.989240118855330     -0.009904821058911     11.931253764902401
Au      6.000775086683400      0.004693823349086     11.953922956853100
Au      1.474887939884120      2.527235532631960     11.882940064347800
Au      4.505355966544730      2.527667326015310     11.885540310104799
Au      7.474639371810040      2.596079806404490     11.928635144322000
Au     -0.033753298973092      5.185802596536960     11.879106222529000
Au      2.995342558557060      5.182505416045130     11.882120368739900
Au      6.016486650146260      5.185451389056920     11.882368963597701
Au      1.461949808040260      7.822454371455200     11.882597589935299
Au      4.518128328506120      7.822376893602830     11.882651959665999
Au      7.474156883605890      7.775951292311890     11.932186206658100
O       2.913533652325440      5.178604976274110     15.116170825999600
C       2.953062941172830      5.177569342570510     13.980316677849100
