18

Ag      1.488535500000000      1.488535500000000     10.000000924182800
Ag      0.000000000000000      0.000000000000000     12.105108185238301
Ag      1.473392829508760      1.473389779841140     14.201069864720299
Ag      0.000015800474374     -0.000009481144733     16.372172246489900
Ag      1.488535500000000      4.465606500000000     10.000000924182800
Ag      0.000000000000000      2.977071000000000     12.105108185238301
Ag      1.473393667097020      4.480752580005320     14.201077570597199
Ag     -0.000002041515297      2.977063044126470     16.243948754102099
Ag      4.465606500000000      1.488535500000000     10.000000924182800
Ag      2.977071000000000      0.000000000000000     12.105108185238301
Ag      4.480750385460190      1.473386094484020     14.201078086371799
Ag      2.977076780220180      0.000009657235160     16.243962388166700
Ag      4.465606500000000      4.465606500000000     10.000000924182800
Ag      2.977071000000000      2.977071000000000     12.105108185238301
Ag      4.480744905394900      4.480750672175840     14.201069197021500
Ag      2.977071532637810      2.977077494847480     16.242828951623299
O       0.000000312841376      0.000002144815469     19.760633009401200
C      -0.000001556284522     -0.000002497206366     18.622573122668499
