65

Rh      0.000000000000000      0.000000000000000      6.999999940626440
Rh      1.366995994532020      0.789235330176392      9.232294987107769
Rh      2.747681125283920      1.586374053509960     11.449568896756400
Rh     -0.000000016403952     -0.000000142062360     13.636419109846100
Rh      1.366996000000000      2.367706000000000      6.999999940626440
Rh      2.733991994532020      3.156941330176390      9.232294987107769
Rh      4.101412835016880      3.945931356540360     11.419608665543199
Rh      1.375507392810610      2.368530141633660     13.634415403015399
Rh      2.733992000000000      4.735412000000000      6.999999940626440
Rh      4.100987994532020      5.524647330176390      9.232294987107769
Rh      5.467984000000000      6.298075836155140     11.449568896756400
Rh      2.684108719308670      4.764212074943020     13.629946428121800
Rh      4.100988000000000      7.103118000000000      6.999999940626440
Rh      5.467983994532020      7.892353330176390      9.232294987107769
Rh      6.832785413685630      8.682855705070800     11.429086431485000
Rh      4.104529870232050      7.095334753716090     13.634415403015399
Rh      2.733992000000000      0.000000000000000      6.999999940626440
Rh      4.100987994532020      0.789235330176392      9.232294987107769
Rh      5.467984010935970      1.578961173269390     11.419608644846299
Rh      2.738961478834690      0.006958858408832     13.634415382318601
Rh      4.100988000000000      2.367706000000000      6.999999940626440
Rh      5.467983994532020      3.156941330176390      9.232294987107769
Rh      6.834555175919090      3.945931356540360     11.419608665543199
Rh      4.076882157412690      2.353788406303050     13.712596934046200
Rh      5.467984000000000      4.735412000000000      6.999999940626440
Rh      6.834979994532020      5.524647330176390      9.232294987107769
Rh      8.200268080665589      6.313417462948730     11.427939368724600
Rh      5.467984010935970      4.763247035860720     13.712596892652501
Rh      6.834980000000000      7.103118000000000      6.999999940626440
Rh      8.201975994532020      7.892353330176390      9.232294987107769
Rh      9.568520907723951      8.683300331845130     11.427939368724600
Rh      6.831438124299970      7.095334782128560     13.634415382318601
Rh      5.467984000000000      0.000000000000000      6.999999940626440
Rh      6.834979994532020      0.789235330176392      9.232294987107769
Rh      8.188286891120031      1.586374044039140     11.449568917453300
Rh      5.467983967192100     -0.057600377185824     13.629946386727999
Rh      6.834980000000000      2.367706000000000      6.999999940626440
Rh      8.201975994532020      3.156941330176390      9.232294987107769
Rh      9.567715189345581      3.944930119968730     11.427939368724600
Rh      6.859085848055300      2.353788453657170     13.712596934046200
Rh      8.201976000000000      4.735412000000000      6.999999940626440
Rh      9.568971994532021      5.524647330176390      9.232294987107769
Rh     10.935967994532000      6.313882631940310     11.427477559129599
Rh      8.251859346307141      4.764212093884670     13.629946428121800
Rh      9.568972000000000      7.103118000000000      6.999999940626440
Rh     10.935967994532000      7.892353330176390      9.232294987107769
Rh     12.303415114148001      8.683300331845130     11.427939368724600
Rh      9.563255293811791      7.106418477984940     13.635802570338800
Rh      8.201976000000000      0.000000000000000      6.999999940626440
Rh      9.568971994532021      0.789235330176392      9.232294987107769
Rh     10.935967994532000      1.575936523562630     11.429086452181901
Rh      8.197006499293380      0.006958858408832     13.634415403015399
Rh      9.568972000000000      2.367706000000000      6.999999940626440
Rh     10.935967994532000      3.156941330176390      9.232294987107769
Rh     12.304220810654400      3.944930119968730     11.427939368724600
Rh      9.560460612657380      2.368530151104480     13.634415403015399
Rh     10.935968000000001      4.735412000000000      6.999999940626440
Rh     12.302963994532000      5.524647330176390      9.232294987107769
Rh     13.671667919334400      6.313417462948730     11.427939368724600
Rh     10.935968016404001      4.728810845142820     13.635802611732601
Rh     12.302963999999999      7.103118000000000      6.999999940626440
Rh     13.669959994532000      7.892353330176390      9.232294987107769
Rh     15.039150591782400      8.682855695599979     11.429086431485000
Rh     12.308680738996101      7.106418496926580     13.635802611732601
O       5.467984010935970      3.156941244938980     14.941018176697600
