28

Pt      1.409834185851960      1.411768464568600     13.859605692042200
Pt      4.228559192776880      1.411003095821070     13.859619197974800
Pd      1.410656850599880      4.229846147642370     13.971332519784101
Pd      4.228051918436310      4.228111510014230     13.969585758765399
Pd      0.002442957155098     -0.006012499206682     11.955805524980899
Pd      0.002142460339077      2.828042342229160     11.956308962927800
Pd      2.818493590446610     -0.006500697990535     11.956724471379999
Pd      2.818840741184550      2.828437017648290     11.957356167394400
Pd      1.409796545321970      1.409750807367520      9.954917332338590
Pd      1.409839386897480      4.225968550298800      9.972214404459409
Pd      4.225607214689410      1.409479806743300      9.954698352688890
Pd      4.225817114006960      4.225891076110150      9.972211555532970
Pd      0.000000000000000      0.000000000000000      7.965999920340000
Pd      0.000000000000000      2.816406309466020      7.965999920340000
Pd      2.816406309466020      0.000000000000000      7.965999920340000
Pd      2.816406309466020      2.816406309466020      7.965999920340000
Pd      1.408203154733010      1.408203154733010      5.974500000000000
Pd      1.408203154733010      4.224609464199030      5.974500000000000
Pd      4.224609464199030      1.408203154733010      5.974500000000000
Pd      4.224609464199030      4.224609464199030      5.974500000000000
Pd      0.000000000000000      0.000000000000000      3.983000079660000
Pd      0.000000000000000      2.816406309466020      3.983000079660000
Pd      2.816406309466020      0.000000000000000      3.983000079660000
Pd      2.816406309466020      2.816406309466020      3.983000079660000
Pd      1.408203154733010      1.408203154733010      1.991499920340000
Pd      1.408203154733010      4.224609464199030      1.991499920340000
Pd      4.224609464199030      1.408203154733010      1.991499920340000
Pd      4.224609464199030      4.224609464199030      1.991499920340000
