45

Pt      1.644446475559820      2.034474889997990      7.350000000000000
Pt      4.463497576519510      2.034474889997990      7.350000000000000
Pt      7.282548677479200      2.034474889997990      7.350000000000000
Pt      3.053972026039670      4.475844757995570      7.350000000000000
Pt      5.873023126999360      4.475844757995570      7.350000000000000
Pt      8.692074227959051      4.475844757995570      7.350000000000000
Pt      4.463497576519510      6.917214625993150      7.350000000000000
Pt      7.282548677479200      6.917214625993150      7.350000000000000
Pt     10.101599778438899      6.917214625993150      7.350000000000000
Pt      1.644446475559820      0.406894977999598      9.651745585394130
Pt      4.463497576519510      0.406894977999598      9.651745585394130
Pt      7.282548677479200      0.406894977999598      9.651745585394130
Pt      3.053972026039670      2.848264845997180      9.651745585394130
Pt      5.873023126999360      2.848264845997180      9.651745585394130
Pt      8.692074227959051      2.848264845997180      9.651745585394130
Pt      4.463497576519510      5.289634713994760      9.651745585394130
Pt      7.282548677479200      5.289634713994760      9.651745585394130
Pt     10.101599778438899      5.289634713994760      9.651745585394130
Pt      3.053952485690930      1.220672610944730     11.938288728944100
Pt      5.873012819883330      1.220658595485050     11.938205492102901
Pt      8.692110701167390      1.220676514603310     11.938258118801000
Pt      4.463484404980750      3.662060953578330     11.938178259406200
Pt      7.282554705106160      3.662073682537060     11.938111105697400
Pt     10.101611878191900      3.662034165420260     11.938223060747401
Pt      5.873039567386250      6.103463101480180     11.938226406381601
Pt      8.692064025919390      6.103449639321600     11.938224222189501
Pt     11.511132043975300      6.103426974179630     11.938235306747300
Pt      1.644457758785740      2.034450563774850     14.227769757065801
Pt      4.463537919412460      2.034450692373510     14.227755846307399
Pt      7.282519137217900      2.034443815259090     14.227722033157900
Pt      3.053982625870860      4.475888140270340     14.227750002724600
Pt      5.873017176432090      4.475865058198070     14.227686762271700
Pt      8.692065754624910      4.475879588664730     14.227724806313001
Pt      4.463465327038920      6.917202180470720     14.227781992991799
Pt      7.282570614131030      6.917216930318160     14.227791294056701
Pt     10.101604373436500      6.917235038669300     14.227798348797100
Pt      1.644447312994940      0.406858994602399     16.556698123448701
Pt      4.463553638195550      0.406879032319174     16.556690855325201
Pt      7.282499866444600      0.406882449374022     16.556730983062600
Pt      3.054007743292660      2.848278529482790     16.556704383950500
Pt      5.873044133563820      2.848247234762560     16.556753533781499
Pt      8.692035003093700      2.848272309844130     16.556740974206999
Pt      4.463489054409310      5.289643427988090     16.556775578321300
Pt      7.282560576319890      5.289634759763660     16.556760186605999
Pt     10.101601941627800      5.289698959615150     16.556804071382199
